Program Version,EnergyPlus, Version 8.7.0-78a111df4a, YMD=2019.06.06 07:15
! <Version>, Version ID
 Version, 8.7
! <Timesteps per Hour>, #TimeSteps, Minutes per TimeStep {minutes}
 Timesteps per Hour,  6, 10
! <System Convergence Limits>, Minimum System TimeStep {minutes}, Max HVAC Iterations, Minimum Plant Iterations, Maximum Plant Iterations
 System Convergence Limits, 1, 20, 2, 8
! <Simulation Control>, Do Zone Sizing, Do System Sizing, Do Plant Sizing, Do Design Days, Do Weather Simulation, Do HVAC Sizing Simulation
 Simulation Control, Yes, No, No, Yes, Yes, No
! <Output Reporting Tolerances>, Tolerance for Time Heating Setpoint Not Met, Tolerance for Zone Cooling Setpoint Not Met Time
 Output Reporting Tolerances, 0.200, 0.200, 
! <Site:GroundTemperature:BuildingSurface>,Jan{C},Feb{C},Mar{C},Apr{C},May{C},Jun{C},Jul{C},Aug{C},Sep{C},Oct{C},Nov{C},Dec{C}
 Site:GroundTemperature:BuildingSurface,  18.00,  18.00,  18.00,  18.00,  18.00,  18.00,  18.00,  18.00,  18.00,  18.00,  18.00,  18.00
! <Site:GroundTemperature:FCfactorMethod>,Jan{C},Feb{C},Mar{C},Apr{C},May{C},Jun{C},Jul{C},Aug{C},Sep{C},Oct{C},Nov{C},Dec{C}
 Site:GroundTemperature:FCfactorMethod,  13.31,  10.23,   9.39,  10.12,  14.28,  18.95,  23.34,  26.51,  27.44,  25.95,  22.35,  17.82
! <Site:GroundTemperature:Shallow>,Jan{C},Feb{C},Mar{C},Apr{C},May{C},Jun{C},Jul{C},Aug{C},Sep{C},Oct{C},Nov{C},Dec{C}
 Site:GroundTemperature:Shallow,  13.00,  13.00,  13.00,  13.00,  13.00,  13.00,  13.00,  13.00,  13.00,  13.00,  13.00,  13.00
! <Site:GroundTemperature:Deep>,Jan{C},Feb{C},Mar{C},Apr{C},May{C},Jun{C},Jul{C},Aug{C},Sep{C},Oct{C},Nov{C},Dec{C}
 Site:GroundTemperature:Deep,  16.00,  16.00,  16.00,  16.00,  16.00,  16.00,  16.00,  16.00,  16.00,  16.00,  16.00,  16.00
! <Site:GroundReflectance>,Jan{dimensionless},Feb{dimensionless},Mar{dimensionless},Apr{dimensionless},May{dimensionless},Jun{dimensionless},Jul{dimensionless},Aug{dimensionless},Sep{dimensionless},Oct{dimensionless},Nov{dimensionless},Dec{dimensionless}
 Site:GroundReflectance,  0.20,  0.20,  0.20,  0.20,  0.20,  0.20,  0.20,  0.20,  0.20,  0.20,  0.20,  0.20
! <Site:GroundReflectance:SnowModifier>, Normal, Daylighting {dimensionless}
 Site:GroundReflectance:SnowModifier,   1.000,   1.000
! <Site:GroundReflectance:Snow>,Jan{dimensionless},Feb{dimensionless},Mar{dimensionless},Apr{dimensionless},May{dimensionless},Jun{dimensionless},Jul{dimensionless},Aug{dimensionless},Sep{dimensionless},Oct{dimensionless},Nov{dimensionless},Dec{dimensionless}
 Site:GroundReflectance:Snow,  0.20,  0.20,  0.20,  0.20,  0.20,  0.20,  0.20,  0.20,  0.20,  0.20,  0.20,  0.20
! <Site:GroundReflectance:Snow:Daylighting>,Jan{dimensionless},Feb{dimensionless},Mar{dimensionless},Apr{dimensionless},May{dimensionless},Jun{dimensionless},Jul{dimensionless},Aug{dimensionless},Sep{dimensionless},Oct{dimensionless},Nov{dimensionless},Dec{dimensionless}
 Site:GroundReflectance:Snow:Daylighting,  0.20,  0.20,  0.20,  0.20,  0.20,  0.20,  0.20,  0.20,  0.20,  0.20,  0.20,  0.20
! <Environment:Weather Station>,Wind Sensor Height Above Ground {m},Wind Speed Profile Exponent {},Wind Speed Profile Boundary Layer Thickness {m},Air Temperature Sensor Height Above Ground {m},Wind Speed Modifier Coefficient-Internal,Temperature Modifier Coefficient-Internal
Environment:Weather Station,10.000,0.140,270.000,1.500,1.586,9.750E-003
! <Site:Location>, Location Name, Latitude {N+/S- Deg}, Longitude {E+/W- Deg},  Time Zone Number {GMT+/-}, Elevation {m},  Standard Pressure at Elevation {Pa}, Standard RhoAir at Elevation
Site:Location,Chongqing Shapingba Chongqing CHN CSWD WMO#=575160,29.58,106.47,8.00,259.10,98251,1.1678
! <Building Information>, Building Name,North Axis {deg},Terrain,  Loads Convergence Tolerance Value,Temperature Convergence Tolerance Value,  Solar Distribution,Maximum Number of Warmup Days,Minimum Number of Warmup Days
 Building Information,basic model,102.476,City,4.00000E-002,0.40000,FullInteriorAndExteriorWithReflectionsFromExteriorSurfaces,25,6
! <Inside Convection Algorithm>, Algorithm {Simple | TARP | CeilingDiffuser | AdaptiveConvectionAlgorithm}
Inside Convection Algorithm,TARP
! <Outside Convection Algorithm>, Algorithm {SimpleCombined | TARP | MoWitt | DOE-2 | AdaptiveConvectionAlgorithm}
Outside Convection Algorithm,DOE-2
! <Sky Radiance Distribution>, Value {Anisotropic}
Sky Radiance Distribution,Anisotropic
! <Zone Air Solution Algorithm>, Value {ThirdOrderBackwardDifference | AnalyticalSolution | EulerMethod}
 Zone Air Solution Algorithm, ThirdOrderBackwardDifference
! <Zone Air Carbon Dioxide Balance Simulation>, Simulation {Yes/No}, Carbon Dioxide Concentration
 Zone Air Carbon Dioxide Balance Simulation, No,N/A
! <Zone Air Generic Contaminant Balance Simulation>, Simulation {Yes/No}, Generic Contaminant Concentration
 Zone Air Generic Contaminant Balance Simulation, No,N/A
! <Zone Air Mass Flow Balance Simulation>, Enforce Mass Balance, Adjust Zone Mixing, Adjust Zone Infiltration {AddInfiltration | AdjustInfiltration | None}, Infiltration Zones {MixingSourceZonesOnly | AllZones}
 Zone Air Mass Flow Balance Simulation, No,N/A,N/A,N/A
! <Environment:Site Atmospheric Variation>,Wind Speed Profile Exponent {},Wind Speed Profile Boundary Layer Thickness {m},Air Temperature Gradient Coefficient {K/m}
Environment:Site Atmospheric Variation,0.330,460.000,6.500000E-003
! <Surface Geometry>,Starting Corner,Vertex Input Direction,Coordinate System,Daylight Reference Point Coordinate System,Rectangular (Simple) Surface Coordinate System
 Surface Geometry,UpperLeftCorner,Counterclockwise,RelativeCoordinateSystem,RelativeCoordinateSystem,RelativeToZoneOrigin
! <ShadingProperty Reflectance>,Shading Surface Name,Shading Type,Diffuse Solar Reflectance, Diffuse Visible Reflectance,Surface Glazing Fraction,Surface Glazing Contruction
! <Surface Heat Transfer Algorithm>, Value {CTF - ConductionTransferFunction | EMPD - MoisturePenetrationDepthConductionTransferFunction | CondFD - ConductionFiniteDifference | HAMT - CombinedHeatAndMoistureFiniteElement} - Description,Inside Surface Max Temperature Limit{C}, Surface Convection Coefficient Lower Limit {W/m2-K}, Surface Convection Coefficient Upper Limit {W/m2-K}
Surface Heat Transfer Algorithm, CTF - ConductionTransferFunction,200,0.10,1000.0
! <Shading Summary>, Number of Fixed Detached Shades, Number of Building Detached Shades, Number of Attached Shades
 Shading Summary,0,0,0
! <Zone Summary>, Number of Zones, Number of Zone Surfaces, Number of SubSurfaces
 Zone Summary,130,1210,130
! <Zone Information>,Zone Name,North Axis {deg},Origin X-Coordinate {m},Origin Y-Coordinate {m},Origin Z-Coordinate {m},Centroid X-Coordinate {m},Centroid Y-Coordinate {m},Centroid Z-Coordinate {m},Type,Zone Multiplier,Zone List Multiplier,Minimum X {m},Maximum X {m},Minimum Y {m},Maximum Y {m},Minimum Z {m},Maximum Z {m},Ceiling Height {m},Volume {m3},Zone Inside Convection Algorithm {Simple-Detailed-CeilingDiffuser-TrombeWall},Zone Outside Convection Algorithm {Simple-Detailed-Tarp-MoWitt-DOE-2-BLAST}, Floor Area {m2},Exterior Gross Wall Area {m2},Exterior Net Wall Area {m2},Exterior Window Area {m2}, Number of Surfaces, Number of SubSurfaces, Number of Shading SubSurfaces,  Part of Total Building Area
 Zone Information, 1F-A'-BED1,0.0,22.30,1.50,0.00,-0.91,-20.79,1.50,1,1,1,-3.35,1.53,-23.00,-18.58,0.00,4.00,3.00,45.36,TARP,DOE-2,15.12,10.80,10.44,0.36,7,1,0,Yes
 Zone Information, 1F-A'-BED2,0.0,22.40,8.20,0.00,5.32,-22.23,1.50,1,1,1,3.17,7.48,-24.42,-20.03,0.00,4.00,3.00,39.96,TARP,DOE-2,13.32,11.10,9.63,1.47,8,1,0,Yes
 Zone Information, 1F-A'-KITHEN,0.0,24.75,11.80,0.00,5.21,-25.30,1.50,1,1,1,3.74,6.68,-26.71,-23.88,0.00,4.00,3.00,17.55,TARP,DOE-2,5.85,7.05,6.12,0.93,6,1,0,Yes
 Zone Information, 1F-A'-LIVING,0.0,22.30,1.29E-008,0.00,2.20E-002,-24.11,1.50,1,1,1,-5.64,4.25,-26.82,-21.74,0.00,4.00,3.00,102.96,TARP,DOE-2,34.32,20.40,20.02,0.38,14,1,0,Yes
 Zone Information, 1F-A'-WASH,0.0,21.00,8.20,0.00,2.50,-20.88,1.50,1,1,1,1.03,3.97,-22.28,-19.49,0.00,3.00,3.00,17.25,TARP,DOE-2,5.75,0.00,0.00,0.00,6,0,0,Yes
 Zone Information, 1F-A-BED1,0.0,18.70,1.50,0.00,-0.14,-17.28,1.50,1,1,1,-2.58,2.30,-19.49,-15.07,0.00,4.00,3.00,45.36,TARP,DOE-2,15.12,10.80,10.44,0.36,7,1,0,Yes
 Zone Information, 1F-A-BED2,0.0,18.70,11.80,0.00,6.12,-18.61,1.50,1,1,1,3.97,8.28,-20.81,-16.42,0.00,4.00,3.00,39.96,TARP,DOE-2,13.32,11.10,9.63,1.47,8,1,0,Yes
 Zone Information, 1F-A-KITHEN,0.0,15.00,11.80,0.00,7.32,-15.78,1.50,1,1,1,5.85,8.79,-17.19,-14.36,0.00,4.00,3.00,17.55,TARP,DOE-2,5.85,7.05,6.12,0.93,6,1,0,Yes
 Zone Information, 1F-A-LIVING,0.0,11.30,2.54E-008,0.00,2.11,-14.67,1.50,1,1,1,-3.26,6.36,-17.78,-11.03,0.00,4.00,3.00,102.96,TARP,DOE-2,34.32,20.40,20.02,0.38,14,1,0,Yes
 Zone Information, 1F-A-WASH,0.0,18.70,8.20,0.00,2.99,-18.64,1.50,1,1,1,1.53,4.46,-20.03,-17.24,-3.43E-050,3.00,3.00,17.25,TARP,DOE-2,5.75,0.00,0.00,0.00,6,0,0,Yes
 Zone Information, 1F-B'-BED1,0.0,37.40,1.50,0.00,-3.49,-35.47,1.50,1,1,1,-6.62,-0.64,-37.75,-33.23,0.00,4.00,3.00,50.91,TARP,DOE-2,16.97,23.70,23.33,0.37,8,1,0,Yes
 Zone Information, 1F-B'-BED2,0.0,29.35,1.50,0.00,-2.23,-27.90,1.50,1,1,1,-4.88,0.42,-30.00,-25.81,0.00,4.00,3.00,45.82,TARP,DOE-2,15.27,9.75,9.42,0.33,7,1,0,Yes
 Zone Information, 1F-B'-BED3,0.0,37.40,11.80,0.00,2.08,-36.87,1.50,1,1,1,-7.33E-002,4.24,-39.07,-34.68,0.00,4.00,3.00,39.96,TARP,DOE-2,13.32,21.90,20.43,1.47,7,1,0,Yes
 Zone Information, 1F-B'-KITCHEN,0.0,31.25,8.20,0.00,3.22,-31.74,1.50,1,1,1,1.26,5.18,-33.06,-30.43,0.00,4.00,3.00,20.52,TARP,DOE-2,6.84,5.70,4.95,0.75,6,1,0,Yes
 Zone Information, 1F-B'-LIVING,0.0,29.35,4.93E-009,0.00,-0.60,-32.26,1.50,1,1,1,-7.28,4.77,-35.94,-28.14,0.00,4.00,3.00,150.33,TARP,DOE-2,50.11,29.40,27.99,1.41,17,2,0,Yes
 Zone Information, 1F-B'-WASH1,0.0,37.40,8.20,0.00,-1.03,-36.85,1.50,1,1,1,-2.51,0.45,-38.29,-35.40,0.00,4.00,3.00,18.00,TARP,DOE-2,6.00,7.50,6.77,0.73,7,1,0,Yes
 Zone Information, 1F-B'-WASH2,0.0,29.35,8.20,0.00,3.63,-29.89,1.50,1,1,1,1.67,5.59,-31.21,-28.57,0.00,4.00,3.00,20.52,TARP,DOE-2,6.84,5.70,4.95,0.75,6,1,0,Yes
 Zone Information, 1F-B-BED1,0.0,2.40,5.70,0.00,3.72,-2.88,1.50,1,1,1,0.67,6.12,-5.08,-0.32,-1.33E-050,4.00,3.00,50.91,TARP,DOE-2,16.97,23.70,23.33,0.37,8,1,0,Yes
 Zone Information, 1F-B-BED2,0.0,11.30,1.50,0.00,1.67,-10.28,1.50,1,1,1,-0.98,4.31,-12.37,-8.18,0.00,4.00,3.00,45.83,TARP,DOE-2,15.28,9.75,9.42,0.33,7,1,0,Yes
 Zone Information, 1F-B-BED3,0.0,0.00,11.80,0.00,9.36,-3.97,1.50,1,1,1,7.21,11.52,-6.16,-1.77,0.00,4.00,3.00,39.96,TARP,DOE-2,13.32,21.90,20.43,1.47,7,1,0,Yes
 Zone Information, 1F-B-KITCHEN,0.0,8.05,11.80,0.00,8.23,-9.09,1.50,1,1,1,6.27,10.19,-10.41,-7.78,-7.44E-050,4.00,3.00,20.52,TARP,DOE-2,6.84,5.70,4.95,0.75,6,1,0,Yes
 Zone Information, 1F-B-LIVING,0.0,3.70,11.80,0.00,4.98,-7.01,1.50,1,1,1,-1.74,10.72,-11.49,-3.61,0.00,4.00,3.00,150.33,TARP,DOE-2,50.11,29.40,27.99,1.41,17,2,0,Yes
 Zone Information, 1F-B-WASH1,0.0,0.00,8.20,0.00,6.53,-2.67,1.50,1,1,1,5.05,8.01,-4.11,-1.23,0.00,4.00,3.00,18.00,TARP,DOE-2,6.00,7.50,6.36,1.14,7,1,0,Yes
 Zone Information, 1F-B-WASH2,0.0,9.95,11.80,0.00,7.82,-10.95,1.50,1,1,1,5.86,9.78,-12.26,-9.63,0.00,4.00,3.00,20.52,TARP,DOE-2,6.84,5.70,4.95,0.75,6,1,0,Yes
 Zone Information, 1F-STAIRS-LEFT,0.0,12.65,6.20,0.00,6.35,-12.98,1.50,1,1,1,3.32,9.37,-14.90,-11.05,0.00,4.00,3.00,45.36,TARP,DOE-2,15.12,8.10,7.03,1.07,9,1,0,Yes
 Zone Information, 1F-STAIRS-RIGHT,0.0,27.45,6.20,0.00,3.15,-27.43,1.50,1,1,1,0.12,6.17,-29.35,-25.50,0.00,4.00,3.00,45.36,TARP,DOE-2,15.12,8.10,7.03,1.07,9,1,0,Yes
 Zone Information, 2F-A'-BED1,0.0,22.30,1.50,3.00,-0.91,-20.79,4.50,1,1,1,-3.35,1.53,-23.00,-18.58,3.00,7.00,3.00,45.36,TARP,DOE-2,15.12,10.80,10.44,0.36,7,1,0,Yes
 Zone Information, 2F-A'-BED2,0.0,22.40,8.20,3.00,5.32,-22.23,4.50,1,1,1,3.17,7.48,-24.42,-20.03,3.00,7.00,3.00,39.96,TARP,DOE-2,13.32,11.10,9.63,1.47,8,1,0,Yes
 Zone Information, 2F-A'-KITHEN,0.0,24.75,11.80,3.00,5.21,-25.30,4.50,1,1,1,3.74,6.68,-26.71,-23.88,3.00,7.00,3.00,17.55,TARP,DOE-2,5.85,7.05,6.12,0.93,6,1,0,Yes
 Zone Information, 2F-A'-LIVING,0.0,22.30,1.29E-008,3.00,2.20E-002,-24.11,4.50,1,1,1,-5.64,4.25,-26.82,-21.74,3.00,7.00,3.00,102.96,TARP,DOE-2,34.32,20.40,20.02,0.38,14,1,0,Yes
 Zone Information, 2F-A'-WASH,0.0,21.00,8.20,3.00,2.50,-20.88,4.50,1,1,1,1.03,3.97,-22.28,-19.49,3.00,6.00,3.00,17.25,TARP,DOE-2,5.75,0.00,0.00,0.00,6,0,0,Yes
 Zone Information, 2F-A-BED1,0.0,18.70,1.50,3.00,-0.14,-17.28,4.50,1,1,1,-2.58,2.30,-19.49,-15.07,3.00,7.00,3.00,45.36,TARP,DOE-2,15.12,10.80,10.44,0.36,7,1,0,Yes
 Zone Information, 2F-A-BED2,0.0,18.70,11.80,3.00,6.12,-18.61,4.50,1,1,1,3.97,8.28,-20.81,-16.42,3.00,7.00,3.00,39.96,TARP,DOE-2,13.32,11.10,9.63,1.47,8,1,0,Yes
 Zone Information, 2F-A-KITHEN,0.0,15.00,11.80,3.00,7.32,-15.78,4.50,1,1,1,5.85,8.79,-17.19,-14.36,3.00,7.00,3.00,17.55,TARP,DOE-2,5.85,7.05,6.12,0.93,6,1,0,Yes
 Zone Information, 2F-A-LIVING,0.0,11.30,2.54E-008,3.00,2.11,-14.67,4.50,1,1,1,-3.26,6.36,-17.78,-11.03,3.00,7.00,3.00,102.96,TARP,DOE-2,34.32,20.40,20.02,0.38,14,1,0,Yes
 Zone Information, 2F-A-WASH,0.0,18.70,8.20,3.00,2.99,-18.64,4.50,1,1,1,1.53,4.46,-20.03,-17.24,3.00,6.00,3.00,17.25,TARP,DOE-2,5.75,0.00,0.00,0.00,6,0,0,Yes
 Zone Information, 2F-B'-BED1,0.0,37.40,1.50,3.00,-3.49,-35.47,4.50,1,1,1,-6.62,-0.64,-37.75,-33.23,3.00,7.00,3.00,50.91,TARP,DOE-2,16.97,23.70,23.33,0.37,8,1,0,Yes
 Zone Information, 2F-B'-BED2,0.0,29.35,1.50,3.00,-2.23,-27.90,4.50,1,1,1,-4.88,0.42,-30.00,-25.81,3.00,7.00,3.00,45.82,TARP,DOE-2,15.27,9.75,9.42,0.33,7,1,0,Yes
 Zone Information, 2F-B'-BED3,0.0,37.40,11.80,3.00,2.08,-36.87,4.50,1,1,1,-7.33E-002,4.24,-39.07,-34.68,3.00,7.00,3.00,39.96,TARP,DOE-2,13.32,21.90,20.43,1.47,7,1,0,Yes
 Zone Information, 2F-B'-KITCHEN,0.0,31.25,8.20,3.00,3.22,-31.74,4.50,1,1,1,1.26,5.18,-33.06,-30.43,3.00,7.00,3.00,20.52,TARP,DOE-2,6.84,5.70,4.95,0.75,6,1,0,Yes
 Zone Information, 2F-B'-LIVING,0.0,29.35,4.93E-009,3.00,-0.60,-32.26,4.50,1,1,1,-7.28,4.77,-35.94,-28.14,3.00,7.00,3.00,150.33,TARP,DOE-2,50.11,29.40,27.99,1.41,17,2,0,Yes
 Zone Information, 2F-B'-WASH1,0.0,37.40,8.20,3.00,-1.03,-36.85,4.50,1,1,1,-2.51,0.45,-38.29,-35.40,3.00,7.00,3.00,18.00,TARP,DOE-2,6.00,7.50,6.77,0.73,7,1,0,Yes
 Zone Information, 2F-B'-WASH2,0.0,29.35,8.20,3.00,3.63,-29.89,4.50,1,1,1,1.67,5.59,-31.21,-28.57,3.00,7.00,3.00,20.52,TARP,DOE-2,6.84,5.70,4.95,0.75,6,1,0,Yes
 Zone Information, 2F-B-BED1,0.0,2.40,5.70,3.00,3.72,-2.88,4.50,1,1,1,0.67,6.12,-5.08,-0.32,3.00,7.00,3.00,50.91,TARP,DOE-2,16.97,23.70,23.33,0.37,8,1,0,Yes
 Zone Information, 2F-B-BED2,0.0,11.30,1.50,3.00,1.67,-10.28,4.50,1,1,1,-0.98,4.31,-12.37,-8.18,3.00,7.00,3.00,45.83,TARP,DOE-2,15.28,9.75,9.42,0.33,7,1,0,Yes
 Zone Information, 2F-B-BED3,0.0,0.00,11.80,3.00,9.36,-3.97,4.50,1,1,1,7.21,11.52,-6.16,-1.77,3.00,7.00,3.00,39.96,TARP,DOE-2,13.32,21.90,20.43,1.47,7,1,0,Yes
 Zone Information, 2F-B-KITCHEN,0.0,8.05,11.80,3.00,8.23,-9.09,4.50,1,1,1,6.27,10.19,-10.41,-7.78,3.00,7.00,3.00,20.52,TARP,DOE-2,6.84,5.70,4.95,0.75,6,1,0,Yes
 Zone Information, 2F-B-LIVING,0.0,3.70,11.80,3.00,4.98,-7.01,4.50,1,1,1,-1.74,10.72,-11.49,-3.61,3.00,7.00,3.00,150.33,TARP,DOE-2,50.11,29.40,27.99,1.41,17,2,0,Yes
 Zone Information, 2F-B-WASH1,0.0,0.00,8.20,3.00,6.53,-2.67,4.50,1,1,1,5.05,8.01,-4.11,-1.23,3.00,7.00,3.00,18.00,TARP,DOE-2,6.00,7.50,6.36,1.14,7,1,0,Yes
 Zone Information, 2F-B-WASH2,0.0,9.95,11.80,3.00,7.82,-10.95,4.50,1,1,1,5.86,9.78,-12.26,-9.63,3.00,7.00,3.00,20.52,TARP,DOE-2,6.84,5.70,4.95,0.75,6,1,0,Yes
 Zone Information, 2F-STAIRS-LEFT,0.0,12.65,6.20,3.00,6.35,-12.98,4.50,1,1,1,3.32,9.37,-14.90,-11.05,3.00,7.00,3.00,45.36,TARP,DOE-2,15.12,8.10,7.03,1.07,9,1,0,Yes
 Zone Information, 2F-STAIRS-RIGHT,0.0,27.45,6.20,3.00,3.15,-27.43,4.50,1,1,1,0.12,6.17,-29.35,-25.50,3.00,7.00,3.00,45.36,TARP,DOE-2,15.12,8.10,7.03,1.07,9,1,0,Yes
 Zone Information, 3F-A'-BED1,0.0,22.30,1.50,6.00,-0.91,-20.79,7.50,1,1,1,-3.35,1.53,-23.00,-18.58,6.00,10.00,3.00,45.36,TARP,DOE-2,15.12,10.80,10.44,0.36,7,1,0,Yes
 Zone Information, 3F-A'-BED2,0.0,22.40,8.20,6.00,5.32,-22.23,7.50,1,1,1,3.17,7.48,-24.42,-20.03,6.00,10.00,3.00,39.96,TARP,DOE-2,13.32,11.10,9.63,1.47,8,1,0,Yes
 Zone Information, 3F-A'-KITHEN,0.0,24.75,11.80,6.00,5.21,-25.30,7.50,1,1,1,3.74,6.68,-26.71,-23.88,6.00,10.00,3.00,17.55,TARP,DOE-2,5.85,7.05,6.12,0.93,6,1,0,Yes
 Zone Information, 3F-A'-LIVING,0.0,22.30,1.29E-008,6.00,2.20E-002,-24.11,7.50,1,1,1,-5.64,4.25,-26.82,-21.74,6.00,10.00,3.00,102.96,TARP,DOE-2,34.32,20.40,20.02,0.38,14,1,0,Yes
 Zone Information, 3F-A'-WASH,0.0,21.00,8.20,6.00,2.50,-20.88,7.50,1,1,1,1.03,3.97,-22.28,-19.49,6.00,9.00,3.00,17.25,TARP,DOE-2,5.75,0.00,0.00,0.00,6,0,0,Yes
 Zone Information, 3F-A-BED1,0.0,18.70,1.50,6.00,-0.14,-17.28,7.50,1,1,1,-2.58,2.30,-19.49,-15.07,6.00,10.00,3.00,45.36,TARP,DOE-2,15.12,10.80,10.44,0.36,7,1,0,Yes
 Zone Information, 3F-A-BED2,0.0,18.70,11.80,6.00,6.12,-18.61,7.50,1,1,1,3.97,8.28,-20.81,-16.42,6.00,10.00,3.00,39.96,TARP,DOE-2,13.32,11.10,9.63,1.47,8,1,0,Yes
 Zone Information, 3F-A-KITHEN,0.0,15.00,11.80,6.00,7.32,-15.78,7.50,1,1,1,5.85,8.79,-17.19,-14.36,6.00,10.00,3.00,17.55,TARP,DOE-2,5.85,7.05,6.12,0.93,6,1,0,Yes
 Zone Information, 3F-A-LIVING,0.0,11.30,2.54E-008,6.00,2.11,-14.67,7.50,1,1,1,-3.26,6.36,-17.78,-11.03,6.00,10.00,3.00,102.96,TARP,DOE-2,34.32,20.40,20.02,0.38,14,1,0,Yes
 Zone Information, 3F-A-WASH,0.0,18.70,8.20,6.00,2.99,-18.64,7.50,1,1,1,1.53,4.46,-20.03,-17.24,6.00,9.00,3.00,17.25,TARP,DOE-2,5.75,0.00,0.00,0.00,6,0,0,Yes
 Zone Information, 3F-B'-BED1,0.0,37.40,1.50,6.00,-3.49,-35.47,7.50,1,1,1,-6.62,-0.64,-37.75,-33.23,6.00,10.00,3.00,50.91,TARP,DOE-2,16.97,23.70,23.33,0.37,8,1,0,Yes
 Zone Information, 3F-B'-BED2,0.0,29.35,1.50,6.00,-2.23,-27.90,7.50,1,1,1,-4.88,0.42,-30.00,-25.81,6.00,10.00,3.00,45.82,TARP,DOE-2,15.27,9.75,9.42,0.33,7,1,0,Yes
 Zone Information, 3F-B'-BED3,0.0,37.40,11.80,6.00,2.08,-36.87,7.50,1,1,1,-7.33E-002,4.24,-39.07,-34.68,6.00,10.00,3.00,39.96,TARP,DOE-2,13.32,21.90,20.43,1.47,7,1,0,Yes
 Zone Information, 3F-B'-KITCHEN,0.0,31.25,8.20,6.00,3.22,-31.74,7.50,1,1,1,1.26,5.18,-33.06,-30.43,6.00,10.00,3.00,20.52,TARP,DOE-2,6.84,5.70,4.95,0.75,6,1,0,Yes
 Zone Information, 3F-B'-LIVING,0.0,29.35,4.93E-009,6.00,-0.60,-32.26,7.50,1,1,1,-7.28,4.77,-35.94,-28.14,6.00,10.00,3.00,150.33,TARP,DOE-2,50.11,29.40,27.99,1.41,17,2,0,Yes
 Zone Information, 3F-B'-WASH1,0.0,37.40,8.20,6.00,-1.03,-36.85,7.50,1,1,1,-2.51,0.45,-38.29,-35.40,6.00,10.00,3.00,18.00,TARP,DOE-2,6.00,7.50,6.77,0.73,7,1,0,Yes
 Zone Information, 3F-B'-WASH2,0.0,29.35,8.20,6.00,3.63,-29.89,7.50,1,1,1,1.67,5.59,-31.21,-28.57,6.00,10.00,3.00,20.52,TARP,DOE-2,6.84,5.70,4.95,0.75,6,1,0,Yes
 Zone Information, 3F-B-BED1,0.0,2.40,5.70,6.00,3.72,-2.88,7.50,1,1,1,0.67,6.12,-5.08,-0.32,6.00,10.00,3.00,50.91,TARP,DOE-2,16.97,23.70,23.33,0.37,8,1,0,Yes
 Zone Information, 3F-B-BED2,0.0,11.30,1.50,6.00,1.67,-10.28,7.50,1,1,1,-0.98,4.31,-12.37,-8.18,6.00,10.00,3.00,45.83,TARP,DOE-2,15.28,9.75,9.42,0.33,7,1,0,Yes
 Zone Information, 3F-B-BED3,0.0,0.00,11.80,6.00,9.36,-3.97,7.50,1,1,1,7.21,11.52,-6.16,-1.77,6.00,10.00,3.00,39.96,TARP,DOE-2,13.32,21.90,20.43,1.47,7,1,0,Yes
 Zone Information, 3F-B-KITCHEN,0.0,8.05,11.80,6.00,8.23,-9.09,7.50,1,1,1,6.27,10.19,-10.41,-7.78,6.00,10.00,3.00,20.52,TARP,DOE-2,6.84,5.70,4.95,0.75,6,1,0,Yes
 Zone Information, 3F-B-LIVING,0.0,3.70,11.80,6.00,4.98,-7.01,7.50,1,1,1,-1.74,10.72,-11.49,-3.61,6.00,10.00,3.00,150.33,TARP,DOE-2,50.11,29.40,27.99,1.41,17,2,0,Yes
 Zone Information, 3F-B-WASH1,0.0,0.00,8.20,6.00,6.53,-2.67,7.50,1,1,1,5.05,8.01,-4.11,-1.23,6.00,10.00,3.00,18.00,TARP,DOE-2,6.00,7.50,6.36,1.14,7,1,0,Yes
 Zone Information, 3F-B-WASH2,0.0,9.95,11.80,6.00,7.82,-10.95,7.50,1,1,1,5.86,9.78,-12.26,-9.63,6.00,10.00,3.00,20.52,TARP,DOE-2,6.84,5.70,4.95,0.75,6,1,0,Yes
 Zone Information, 3F-STAIRS-LEFT,0.0,12.65,6.20,6.00,6.35,-12.98,7.50,1,1,1,3.32,9.37,-14.90,-11.05,6.00,10.00,3.00,45.36,TARP,DOE-2,15.12,8.10,7.03,1.07,9,1,0,Yes
 Zone Information, 3F-STAIRS-RIGHT,0.0,27.45,6.20,6.00,3.15,-27.43,7.50,1,1,1,0.12,6.17,-29.35,-25.50,6.00,10.00,3.00,45.36,TARP,DOE-2,15.12,8.10,7.03,1.07,9,1,0,Yes
 Zone Information, 4F-A'-BED1,0.0,22.30,1.50,9.00,-0.91,-20.79,10.50,1,1,1,-3.35,1.53,-23.00,-18.58,9.00,13.00,3.00,45.36,TARP,DOE-2,15.12,10.80,10.44,0.36,7,1,0,Yes
 Zone Information, 4F-A'-BED2,0.0,22.40,8.20,9.00,5.32,-22.23,10.50,1,1,1,3.17,7.48,-24.42,-20.03,9.00,13.00,3.00,39.96,TARP,DOE-2,13.32,11.10,9.63,1.47,8,1,0,Yes
 Zone Information, 4F-A'-KITHEN,0.0,24.75,11.80,9.00,5.21,-25.30,10.50,1,1,1,3.74,6.68,-26.71,-23.88,9.00,13.00,3.00,17.55,TARP,DOE-2,5.85,7.05,6.12,0.93,6,1,0,Yes
 Zone Information, 4F-A'-LIVING,0.0,22.30,1.29E-008,9.00,2.20E-002,-24.11,10.50,1,1,1,-5.64,4.25,-26.82,-21.74,9.00,13.00,3.00,102.96,TARP,DOE-2,34.32,20.40,20.02,0.38,14,1,0,Yes
 Zone Information, 4F-A'-WASH,0.0,21.00,8.20,9.00,2.50,-20.88,10.50,1,1,1,1.03,3.97,-22.28,-19.49,9.00,12.00,3.00,17.25,TARP,DOE-2,5.75,0.00,0.00,0.00,6,0,0,Yes
 Zone Information, 4F-A-BED1,0.0,18.70,1.50,9.00,-0.14,-17.28,10.50,1,1,1,-2.58,2.30,-19.49,-15.07,9.00,13.00,3.00,45.36,TARP,DOE-2,15.12,10.80,10.44,0.36,7,1,0,Yes
 Zone Information, 4F-A-BED2,0.0,18.70,11.80,9.00,6.12,-18.61,10.50,1,1,1,3.97,8.28,-20.81,-16.42,9.00,13.00,3.00,39.96,TARP,DOE-2,13.32,11.10,9.63,1.47,8,1,0,Yes
 Zone Information, 4F-A-KITHEN,0.0,15.00,11.80,9.00,7.32,-15.78,10.50,1,1,1,5.85,8.79,-17.19,-14.36,9.00,13.00,3.00,17.55,TARP,DOE-2,5.85,7.05,6.12,0.93,6,1,0,Yes
 Zone Information, 4F-A-LIVING,0.0,11.30,2.54E-008,9.00,2.11,-14.67,10.50,1,1,1,-3.26,6.36,-17.78,-11.03,9.00,13.00,3.00,102.96,TARP,DOE-2,34.32,20.40,20.02,0.38,14,1,0,Yes
 Zone Information, 4F-A-WASH,0.0,18.70,8.20,9.00,2.99,-18.64,10.50,1,1,1,1.53,4.46,-20.03,-17.24,9.00,12.00,3.00,17.25,TARP,DOE-2,5.75,0.00,0.00,0.00,6,0,0,Yes
 Zone Information, 4F-B'-BED1,0.0,37.40,1.50,9.00,-3.49,-35.47,10.50,1,1,1,-6.62,-0.64,-37.75,-33.23,9.00,13.00,3.00,50.91,TARP,DOE-2,16.97,23.70,23.33,0.37,8,1,0,Yes
 Zone Information, 4F-B'-BED2,0.0,29.35,1.50,9.00,-2.23,-27.90,10.50,1,1,1,-4.88,0.42,-30.00,-25.81,9.00,13.00,3.00,45.82,TARP,DOE-2,15.27,9.75,9.42,0.33,7,1,0,Yes
 Zone Information, 4F-B'-BED3,0.0,37.40,11.80,9.00,2.08,-36.87,10.50,1,1,1,-7.33E-002,4.24,-39.07,-34.68,9.00,13.00,3.00,39.96,TARP,DOE-2,13.32,21.90,20.43,1.47,7,1,0,Yes
 Zone Information, 4F-B'-KITCHEN,0.0,31.25,8.20,9.00,3.22,-31.74,10.50,1,1,1,1.26,5.18,-33.06,-30.43,9.00,13.00,3.00,20.52,TARP,DOE-2,6.84,5.70,4.95,0.75,6,1,0,Yes
 Zone Information, 4F-B'-LIVING,0.0,29.35,4.93E-009,9.00,-0.60,-32.26,10.50,1,1,1,-7.28,4.77,-35.94,-28.14,9.00,13.00,3.00,150.33,TARP,DOE-2,50.11,29.40,27.99,1.41,17,2,0,Yes
 Zone Information, 4F-B'-WASH1,0.0,37.40,8.20,9.00,-1.03,-36.85,10.50,1,1,1,-2.51,0.45,-38.29,-35.40,9.00,13.00,3.00,18.00,TARP,DOE-2,6.00,7.50,6.77,0.73,7,1,0,Yes
 Zone Information, 4F-B'-WASH2,0.0,29.35,8.20,9.00,3.63,-29.89,10.50,1,1,1,1.67,5.59,-31.21,-28.57,9.00,13.00,3.00,20.52,TARP,DOE-2,6.84,5.70,4.95,0.75,6,1,0,Yes
 Zone Information, 4F-B-BED1,0.0,2.40,5.70,9.00,3.72,-2.88,10.50,1,1,1,0.67,6.12,-5.08,-0.32,9.00,13.00,3.00,50.91,TARP,DOE-2,16.97,23.70,23.33,0.37,8,1,0,Yes
 Zone Information, 4F-B-BED2,0.0,11.30,1.50,9.00,1.67,-10.28,10.50,1,1,1,-0.98,4.31,-12.37,-8.18,9.00,13.00,3.00,45.83,TARP,DOE-2,15.28,9.75,9.42,0.33,7,1,0,Yes
 Zone Information, 4F-B-BED3,0.0,0.00,11.80,9.00,9.36,-3.97,10.50,1,1,1,7.21,11.52,-6.16,-1.77,9.00,13.00,3.00,39.96,TARP,DOE-2,13.32,21.90,20.43,1.47,7,1,0,Yes
 Zone Information, 4F-B-KITCHEN,0.0,8.05,11.80,9.00,8.23,-9.09,10.50,1,1,1,6.27,10.19,-10.41,-7.78,9.00,13.00,3.00,20.52,TARP,DOE-2,6.84,5.70,4.95,0.75,6,1,0,Yes
 Zone Information, 4F-B-LIVING,0.0,3.70,11.80,9.00,4.98,-7.01,10.50,1,1,1,-1.74,10.72,-11.49,-3.61,9.00,13.00,3.00,150.33,TARP,DOE-2,50.11,29.40,27.99,1.41,17,2,0,Yes
 Zone Information, 4F-B-WASH1,0.0,0.00,8.20,9.00,6.53,-2.67,10.50,1,1,1,5.05,8.01,-4.11,-1.23,9.00,13.00,3.00,18.00,TARP,DOE-2,6.00,7.50,6.36,1.14,7,1,0,Yes
 Zone Information, 4F-B-WASH2,0.0,9.95,11.80,9.00,7.82,-10.95,10.50,1,1,1,5.86,9.78,-12.26,-9.63,9.00,13.00,3.00,20.52,TARP,DOE-2,6.84,5.70,4.95,0.75,6,1,0,Yes
 Zone Information, 4F-STAIRS-LEFT,0.0,12.65,6.20,9.00,6.35,-12.98,10.50,1,1,1,3.32,9.37,-14.90,-11.05,9.00,13.00,3.00,45.36,TARP,DOE-2,15.12,8.10,7.03,1.07,9,1,0,Yes
 Zone Information, 4F-STAIRS-RIGHT,0.0,27.45,6.20,9.00,3.15,-27.43,10.50,1,1,1,0.12,6.17,-29.35,-25.50,9.00,13.00,3.00,45.36,TARP,DOE-2,15.12,8.10,7.03,1.07,9,1,0,Yes
 Zone Information, 5F-A'-BED1,0.0,22.30,1.50,12.00,-0.91,-20.79,13.50,1,1,1,-3.35,1.53,-23.00,-18.58,12.00,16.00,3.00,45.36,TARP,DOE-2,15.12,10.80,10.44,0.36,7,1,0,Yes
 Zone Information, 5F-A'-BED2,0.0,22.40,8.20,12.00,5.32,-22.23,13.50,1,1,1,3.17,7.48,-24.42,-20.03,12.00,16.00,3.00,39.96,TARP,DOE-2,13.32,11.10,9.63,1.47,8,1,0,Yes
 Zone Information, 5F-A'-KITHEN,0.0,24.75,11.80,12.00,5.21,-25.30,13.50,1,1,1,3.74,6.68,-26.71,-23.88,12.00,16.00,3.00,17.55,TARP,DOE-2,5.85,7.05,6.12,0.93,6,1,0,Yes
 Zone Information, 5F-A'-LIVING,0.0,22.30,1.29E-008,12.00,2.20E-002,-24.11,13.50,1,1,1,-5.64,4.25,-26.82,-21.74,12.00,16.00,3.00,102.96,TARP,DOE-2,34.32,20.40,20.02,0.38,14,1,0,Yes
 Zone Information, 5F-A'-WASH,0.0,21.00,8.20,12.00,2.50,-20.88,13.50,1,1,1,1.03,3.97,-22.28,-19.49,12.00,15.00,3.00,17.25,TARP,DOE-2,5.75,0.00,0.00,0.00,6,0,0,Yes
 Zone Information, 5F-A-BED1,0.0,18.70,1.50,12.00,-0.14,-17.28,13.50,1,1,1,-2.58,2.30,-19.49,-15.07,12.00,16.00,3.00,45.36,TARP,DOE-2,15.12,10.80,10.44,0.36,7,1,0,Yes
 Zone Information, 5F-A-BED2,0.0,18.70,11.80,12.00,6.12,-18.61,13.50,1,1,1,3.97,8.28,-20.81,-16.42,12.00,16.00,3.00,39.96,TARP,DOE-2,13.32,11.10,9.63,1.47,8,1,0,Yes
 Zone Information, 5F-A-KITHEN,0.0,15.00,11.80,12.00,7.32,-15.78,13.50,1,1,1,5.85,8.79,-17.19,-14.36,12.00,16.00,3.00,17.55,TARP,DOE-2,5.85,7.05,6.12,0.93,6,1,0,Yes
 Zone Information, 5F-A-LIVING,0.0,11.30,2.54E-008,12.00,2.11,-14.67,13.50,1,1,1,-3.26,6.36,-17.78,-11.03,12.00,16.00,3.00,102.96,TARP,DOE-2,34.32,20.40,20.02,0.38,14,1,0,Yes
 Zone Information, 5F-A-WASH,0.0,18.70,8.20,12.00,2.99,-18.64,13.50,1,1,1,1.53,4.46,-20.03,-17.24,12.00,15.00,3.00,17.25,TARP,DOE-2,5.75,0.00,0.00,0.00,6,0,0,Yes
 Zone Information, 5F-B'-BED1,0.0,37.40,1.50,12.00,-3.49,-35.47,13.50,1,1,1,-6.62,-0.64,-37.75,-33.23,12.00,16.00,3.00,50.91,TARP,DOE-2,16.97,23.70,23.33,0.37,8,1,0,Yes
 Zone Information, 5F-B'-BED2,0.0,29.35,1.50,12.00,-2.23,-27.90,13.50,1,1,1,-4.88,0.42,-30.00,-25.81,12.00,16.00,3.00,45.82,TARP,DOE-2,15.27,9.75,9.42,0.33,7,1,0,Yes
 Zone Information, 5F-B'-BED3,0.0,37.40,11.80,12.00,2.08,-36.87,13.50,1,1,1,-7.33E-002,4.24,-39.07,-34.68,12.00,16.00,3.00,39.96,TARP,DOE-2,13.32,21.90,20.43,1.47,7,1,0,Yes
 Zone Information, 5F-B'-KITCHEN,0.0,31.25,8.20,12.00,3.22,-31.74,13.50,1,1,1,1.26,5.18,-33.06,-30.43,12.00,16.00,3.00,20.52,TARP,DOE-2,6.84,5.70,4.95,0.75,6,1,0,Yes
 Zone Information, 5F-B'-LIVING,0.0,29.35,4.93E-009,12.00,-0.60,-32.26,13.50,1,1,1,-7.28,4.77,-35.94,-28.14,12.00,16.00,3.00,150.33,TARP,DOE-2,50.11,29.40,27.99,1.41,17,2,0,Yes
 Zone Information, 5F-B'-WASH1,0.0,37.40,8.20,12.00,-1.03,-36.85,13.50,1,1,1,-2.51,0.45,-38.29,-35.40,12.00,16.00,3.00,18.00,TARP,DOE-2,6.00,7.50,6.77,0.73,7,1,0,Yes
 Zone Information, 5F-B'-WASH2,0.0,29.35,8.20,12.00,3.63,-29.89,13.50,1,1,1,1.67,5.59,-31.21,-28.57,12.00,16.00,3.00,20.52,TARP,DOE-2,6.84,5.70,4.95,0.75,6,1,0,Yes
 Zone Information, 5F-B-BED1,0.0,2.40,5.70,12.00,3.72,-2.88,13.50,1,1,1,0.67,6.12,-5.08,-0.32,12.00,16.00,3.00,50.91,TARP,DOE-2,16.97,23.70,23.33,0.37,8,1,0,Yes
 Zone Information, 5F-B-BED2,0.0,11.30,1.50,12.00,1.67,-10.28,13.50,1,1,1,-0.98,4.31,-12.37,-8.18,12.00,16.00,3.00,45.83,TARP,DOE-2,15.28,9.75,9.42,0.33,7,1,0,Yes
 Zone Information, 5F-B-BED3,0.0,0.00,11.80,12.00,9.36,-3.97,13.50,1,1,1,7.21,11.52,-6.16,-1.77,12.00,16.00,3.00,39.96,TARP,DOE-2,13.32,21.90,20.43,1.47,7,1,0,Yes
 Zone Information, 5F-B-KITCHEN,0.0,8.05,11.80,12.00,8.23,-9.09,13.50,1,1,1,6.27,10.19,-10.41,-7.78,12.00,16.00,3.00,20.52,TARP,DOE-2,6.84,5.70,4.95,0.75,6,1,0,Yes
 Zone Information, 5F-B-LIVING,0.0,3.70,11.80,12.00,4.98,-7.01,13.50,1,1,1,-1.74,10.72,-11.49,-3.61,12.00,16.00,3.00,150.33,TARP,DOE-2,50.11,29.40,27.99,1.41,17,2,0,Yes
 Zone Information, 5F-B-WASH1,0.0,0.00,8.20,12.00,6.53,-2.67,13.50,1,1,1,5.05,8.01,-4.11,-1.23,12.00,16.00,3.00,18.00,TARP,DOE-2,6.00,7.50,6.36,1.14,7,1,0,Yes
 Zone Information, 5F-B-WASH2,0.0,9.95,11.80,12.00,7.82,-10.95,13.50,1,1,1,5.86,9.78,-12.26,-9.63,12.00,16.00,3.00,20.52,TARP,DOE-2,6.84,5.70,4.95,0.75,6,1,0,Yes
 Zone Information, 5F-STAIRS-LEFT,0.0,12.65,6.20,12.00,6.35,-12.98,13.50,1,1,1,3.32,9.37,-14.90,-11.05,12.00,16.00,3.00,45.36,TARP,DOE-2,15.12,8.10,7.03,1.07,9,1,0,Yes
 Zone Information, 5F-STAIRS-RIGHT,0.0,27.45,6.20,12.00,3.15,-27.43,13.50,1,1,1,0.12,6.17,-29.35,-25.50,12.00,16.00,3.00,45.36,TARP,DOE-2,15.12,8.10,7.03,1.07,9,1,0,Yes
! <Zone Internal Gains Nominal>,Zone Name, Floor Area {m2},# Occupants,Area per Occupant {m2/person},Occupant per Area {person/m2},Interior Lighting {W/m2},Electric Load {W/m2},Gas Load {W/m2},Other Load {W/m2},Hot Water Eq {W/m2},Steam Equipment {W/m2},Sum Loads per Area {W/m2},Outdoor Controlled Baseboard Heat
 Zone Internal Gains Nominal, 1F-A'-BED1,15.12,2.0,7.560,0.132,6.000,4.300,0.000,0.000,0.000,0.000,10.300,No
 Zone Internal Gains Nominal, 1F-A'-BED2,13.32,2.0,6.660,0.150,6.000,4.300,0.000,0.000,0.000,0.000,10.300,No
 Zone Internal Gains Nominal, 1F-A'-KITHEN,5.85,0.0,N/A,0.000,0.000,0.000,0.000,0.000,0.000,0.000,0.000,No
 Zone Internal Gains Nominal, 1F-A'-LIVING,34.32,3.0,11.439,8.742E-002,6.000,4.300,0.000,0.000,0.000,0.000,10.300,No
 Zone Internal Gains Nominal, 1F-A'-WASH,5.75,0.0,N/A,0.000,0.000,0.000,0.000,0.000,0.000,0.000,0.000,No
 Zone Internal Gains Nominal, 1F-A-BED1,15.12,2.0,7.560,0.132,6.000,4.300,0.000,0.000,0.000,0.000,10.300,No
 Zone Internal Gains Nominal, 1F-A-BED2,13.32,2.0,6.660,0.150,6.000,4.300,0.000,0.000,0.000,0.000,10.300,No
 Zone Internal Gains Nominal, 1F-A-KITHEN,5.85,0.0,N/A,0.000,0.000,0.000,0.000,0.000,0.000,0.000,0.000,No
 Zone Internal Gains Nominal, 1F-A-LIVING,34.32,3.0,11.439,8.742E-002,6.000,4.300,0.000,0.000,0.000,0.000,10.300,No
 Zone Internal Gains Nominal, 1F-A-WASH,5.75,0.0,N/A,0.000,0.000,0.000,0.000,0.000,0.000,0.000,0.000,No
 Zone Internal Gains Nominal, 1F-B'-BED1,16.97,2.0,8.485,0.118,6.000,4.300,0.000,0.000,0.000,0.000,10.300,No
 Zone Internal Gains Nominal, 1F-B'-BED2,15.27,2.0,7.637,0.131,6.000,4.300,0.000,0.000,0.000,0.000,10.300,No
 Zone Internal Gains Nominal, 1F-B'-BED3,13.32,2.0,6.660,0.150,6.000,4.300,0.000,0.000,0.000,0.000,10.300,No
 Zone Internal Gains Nominal, 1F-B'-KITCHEN,6.84,0.0,N/A,0.000,0.000,0.000,0.000,0.000,0.000,0.000,0.000,No
 Zone Internal Gains Nominal, 1F-B'-LIVING,50.11,5.0,10.022,9.978E-002,6.000,4.300,0.000,0.000,0.000,0.000,10.300,No
 Zone Internal Gains Nominal, 1F-B'-WASH1,6.00,0.0,N/A,0.000,0.000,0.000,0.000,0.000,0.000,0.000,0.000,No
 Zone Internal Gains Nominal, 1F-B'-WASH2,6.84,0.0,N/A,0.000,0.000,0.000,0.000,0.000,0.000,0.000,0.000,No
 Zone Internal Gains Nominal, 1F-B-BED1,16.97,2.0,8.485,0.118,6.000,4.300,0.000,0.000,0.000,0.000,10.300,No
 Zone Internal Gains Nominal, 1F-B-BED2,15.28,2.0,7.638,0.131,6.000,4.300,0.000,0.000,0.000,0.000,10.300,No
 Zone Internal Gains Nominal, 1F-B-BED3,13.32,2.0,6.660,0.150,6.000,4.300,0.000,0.000,0.000,0.000,10.300,No
 Zone Internal Gains Nominal, 1F-B-KITCHEN,6.84,0.0,N/A,0.000,0.000,0.000,0.000,0.000,0.000,0.000,0.000,No
 Zone Internal Gains Nominal, 1F-B-LIVING,50.11,5.0,10.022,9.978E-002,6.000,4.300,0.000,0.000,0.000,0.000,10.300,No
 Zone Internal Gains Nominal, 1F-B-WASH1,6.00,0.0,N/A,0.000,0.000,0.000,0.000,0.000,0.000,0.000,0.000,No
 Zone Internal Gains Nominal, 1F-B-WASH2,6.84,0.0,N/A,0.000,0.000,0.000,0.000,0.000,0.000,0.000,0.000,No
 Zone Internal Gains Nominal, 1F-STAIRS-LEFT,15.12,0.0,N/A,0.000,0.000,0.000,0.000,0.000,0.000,0.000,0.000,No
 Zone Internal Gains Nominal, 1F-STAIRS-RIGHT,15.12,0.0,N/A,0.000,0.000,0.000,0.000,0.000,0.000,0.000,0.000,No
 Zone Internal Gains Nominal, 2F-A'-BED1,15.12,2.0,7.560,0.132,6.000,4.300,0.000,0.000,0.000,0.000,10.300,No
 Zone Internal Gains Nominal, 2F-A'-BED2,13.32,2.0,6.660,0.150,6.000,4.300,0.000,0.000,0.000,0.000,10.300,No
 Zone Internal Gains Nominal, 2F-A'-KITHEN,5.85,0.0,N/A,0.000,0.000,0.000,0.000,0.000,0.000,0.000,0.000,No
 Zone Internal Gains Nominal, 2F-A'-LIVING,34.32,3.0,11.439,8.742E-002,6.000,4.300,0.000,0.000,0.000,0.000,10.300,No
 Zone Internal Gains Nominal, 2F-A'-WASH,5.75,0.0,N/A,0.000,0.000,0.000,0.000,0.000,0.000,0.000,0.000,No
 Zone Internal Gains Nominal, 2F-A-BED1,15.12,2.0,7.560,0.132,6.000,4.300,0.000,0.000,0.000,0.000,10.300,No
 Zone Internal Gains Nominal, 2F-A-BED2,13.32,2.0,6.660,0.150,6.000,4.300,0.000,0.000,0.000,0.000,10.300,No
 Zone Internal Gains Nominal, 2F-A-KITHEN,5.85,0.0,N/A,0.000,0.000,0.000,0.000,0.000,0.000,0.000,0.000,No
 Zone Internal Gains Nominal, 2F-A-LIVING,34.32,3.0,11.439,8.742E-002,6.000,4.300,0.000,0.000,0.000,0.000,10.300,No
 Zone Internal Gains Nominal, 2F-A-WASH,5.75,0.0,N/A,0.000,0.000,0.000,0.000,0.000,0.000,0.000,0.000,No
 Zone Internal Gains Nominal, 2F-B'-BED1,16.97,2.0,8.485,0.118,6.000,4.300,0.000,0.000,0.000,0.000,10.300,No
 Zone Internal Gains Nominal, 2F-B'-BED2,15.27,2.0,7.637,0.131,6.000,4.300,0.000,0.000,0.000,0.000,10.300,No
 Zone Internal Gains Nominal, 2F-B'-BED3,13.32,2.0,6.660,0.150,6.000,4.300,0.000,0.000,0.000,0.000,10.300,No
 Zone Internal Gains Nominal, 2F-B'-KITCHEN,6.84,0.0,N/A,0.000,0.000,0.000,0.000,0.000,0.000,0.000,0.000,No
 Zone Internal Gains Nominal, 2F-B'-LIVING,50.11,5.0,10.022,9.978E-002,6.000,4.300,0.000,0.000,0.000,0.000,10.300,No
 Zone Internal Gains Nominal, 2F-B'-WASH1,6.00,0.0,N/A,0.000,0.000,0.000,0.000,0.000,0.000,0.000,0.000,No
 Zone Internal Gains Nominal, 2F-B'-WASH2,6.84,0.0,N/A,0.000,0.000,0.000,0.000,0.000,0.000,0.000,0.000,No
 Zone Internal Gains Nominal, 2F-B-BED1,16.97,2.0,8.485,0.118,6.000,4.300,0.000,0.000,0.000,0.000,10.300,No
 Zone Internal Gains Nominal, 2F-B-BED2,15.28,2.0,7.638,0.131,6.000,4.300,0.000,0.000,0.000,0.000,10.300,No
 Zone Internal Gains Nominal, 2F-B-BED3,13.32,2.0,6.660,0.150,6.000,4.300,0.000,0.000,0.000,0.000,10.300,No
 Zone Internal Gains Nominal, 2F-B-KITCHEN,6.84,0.0,N/A,0.000,0.000,0.000,0.000,0.000,0.000,0.000,0.000,No
 Zone Internal Gains Nominal, 2F-B-LIVING,50.11,5.0,10.022,9.978E-002,6.000,4.300,0.000,0.000,0.000,0.000,10.300,No
 Zone Internal Gains Nominal, 2F-B-WASH1,6.00,0.0,N/A,0.000,0.000,0.000,0.000,0.000,0.000,0.000,0.000,No
 Zone Internal Gains Nominal, 2F-B-WASH2,6.84,0.0,N/A,0.000,0.000,0.000,0.000,0.000,0.000,0.000,0.000,No
 Zone Internal Gains Nominal, 2F-STAIRS-LEFT,15.12,0.0,N/A,0.000,0.000,0.000,0.000,0.000,0.000,0.000,0.000,No
 Zone Internal Gains Nominal, 2F-STAIRS-RIGHT,15.12,0.0,N/A,0.000,0.000,0.000,0.000,0.000,0.000,0.000,0.000,No
 Zone Internal Gains Nominal, 3F-A'-BED1,15.12,2.0,7.560,0.132,6.000,4.300,0.000,0.000,0.000,0.000,10.300,No
 Zone Internal Gains Nominal, 3F-A'-BED2,13.32,2.0,6.660,0.150,6.000,4.300,0.000,0.000,0.000,0.000,10.300,No
 Zone Internal Gains Nominal, 3F-A'-KITHEN,5.85,0.0,N/A,0.000,0.000,0.000,0.000,0.000,0.000,0.000,0.000,No
 Zone Internal Gains Nominal, 3F-A'-LIVING,34.32,3.0,11.439,8.742E-002,6.000,4.300,0.000,0.000,0.000,0.000,10.300,No
 Zone Internal Gains Nominal, 3F-A'-WASH,5.75,0.0,N/A,0.000,0.000,0.000,0.000,0.000,0.000,0.000,0.000,No
 Zone Internal Gains Nominal, 3F-A-BED1,15.12,2.0,7.560,0.132,6.000,4.300,0.000,0.000,0.000,0.000,10.300,No
 Zone Internal Gains Nominal, 3F-A-BED2,13.32,2.0,6.660,0.150,6.000,4.300,0.000,0.000,0.000,0.000,10.300,No
 Zone Internal Gains Nominal, 3F-A-KITHEN,5.85,0.0,N/A,0.000,0.000,0.000,0.000,0.000,0.000,0.000,0.000,No
 Zone Internal Gains Nominal, 3F-A-LIVING,34.32,3.0,11.439,8.742E-002,6.000,4.300,0.000,0.000,0.000,0.000,10.300,No
 Zone Internal Gains Nominal, 3F-A-WASH,5.75,0.0,N/A,0.000,0.000,0.000,0.000,0.000,0.000,0.000,0.000,No
 Zone Internal Gains Nominal, 3F-B'-BED1,16.97,2.0,8.485,0.118,6.000,4.300,0.000,0.000,0.000,0.000,10.300,No
 Zone Internal Gains Nominal, 3F-B'-BED2,15.27,2.0,7.637,0.131,6.000,4.300,0.000,0.000,0.000,0.000,10.300,No
 Zone Internal Gains Nominal, 3F-B'-BED3,13.32,2.0,6.660,0.150,6.000,4.300,0.000,0.000,0.000,0.000,10.300,No
 Zone Internal Gains Nominal, 3F-B'-KITCHEN,6.84,0.0,N/A,0.000,0.000,0.000,0.000,0.000,0.000,0.000,0.000,No
 Zone Internal Gains Nominal, 3F-B'-LIVING,50.11,5.0,10.022,9.978E-002,6.000,4.300,0.000,0.000,0.000,0.000,10.300,No
 Zone Internal Gains Nominal, 3F-B'-WASH1,6.00,0.0,N/A,0.000,0.000,0.000,0.000,0.000,0.000,0.000,0.000,No
 Zone Internal Gains Nominal, 3F-B'-WASH2,6.84,0.0,N/A,0.000,0.000,0.000,0.000,0.000,0.000,0.000,0.000,No
 Zone Internal Gains Nominal, 3F-B-BED1,16.97,2.0,8.485,0.118,6.000,4.300,0.000,0.000,0.000,0.000,10.300,No
 Zone Internal Gains Nominal, 3F-B-BED2,15.28,2.0,7.638,0.131,6.000,4.300,0.000,0.000,0.000,0.000,10.300,No
 Zone Internal Gains Nominal, 3F-B-BED3,13.32,2.0,6.660,0.150,6.000,4.300,0.000,0.000,0.000,0.000,10.300,No
 Zone Internal Gains Nominal, 3F-B-KITCHEN,6.84,0.0,N/A,0.000,0.000,0.000,0.000,0.000,0.000,0.000,0.000,No
 Zone Internal Gains Nominal, 3F-B-LIVING,50.11,5.0,10.022,9.978E-002,6.000,4.300,0.000,0.000,0.000,0.000,10.300,No
 Zone Internal Gains Nominal, 3F-B-WASH1,6.00,0.0,N/A,0.000,0.000,0.000,0.000,0.000,0.000,0.000,0.000,No
 Zone Internal Gains Nominal, 3F-B-WASH2,6.84,0.0,N/A,0.000,0.000,0.000,0.000,0.000,0.000,0.000,0.000,No
 Zone Internal Gains Nominal, 3F-STAIRS-LEFT,15.12,0.0,N/A,0.000,0.000,0.000,0.000,0.000,0.000,0.000,0.000,No
 Zone Internal Gains Nominal, 3F-STAIRS-RIGHT,15.12,0.0,N/A,0.000,0.000,0.000,0.000,0.000,0.000,0.000,0.000,No
 Zone Internal Gains Nominal, 4F-A'-BED1,15.12,2.0,7.560,0.132,6.000,4.300,0.000,0.000,0.000,0.000,10.300,No
 Zone Internal Gains Nominal, 4F-A'-BED2,13.32,2.0,6.660,0.150,6.000,4.300,0.000,0.000,0.000,0.000,10.300,No
 Zone Internal Gains Nominal, 4F-A'-KITHEN,5.85,0.0,N/A,0.000,0.000,0.000,0.000,0.000,0.000,0.000,0.000,No
 Zone Internal Gains Nominal, 4F-A'-LIVING,34.32,3.0,11.439,8.742E-002,6.000,4.300,0.000,0.000,0.000,0.000,10.300,No
 Zone Internal Gains Nominal, 4F-A'-WASH,5.75,0.0,N/A,0.000,0.000,0.000,0.000,0.000,0.000,0.000,0.000,No
 Zone Internal Gains Nominal, 4F-A-BED1,15.12,2.0,7.560,0.132,6.000,4.300,0.000,0.000,0.000,0.000,10.300,No
 Zone Internal Gains Nominal, 4F-A-BED2,13.32,2.0,6.660,0.150,6.000,4.300,0.000,0.000,0.000,0.000,10.300,No
 Zone Internal Gains Nominal, 4F-A-KITHEN,5.85,0.0,N/A,0.000,0.000,0.000,0.000,0.000,0.000,0.000,0.000,No
 Zone Internal Gains Nominal, 4F-A-LIVING,34.32,3.0,11.439,8.742E-002,6.000,4.300,0.000,0.000,0.000,0.000,10.300,No
 Zone Internal Gains Nominal, 4F-A-WASH,5.75,0.0,N/A,0.000,0.000,0.000,0.000,0.000,0.000,0.000,0.000,No
 Zone Internal Gains Nominal, 4F-B'-BED1,16.97,2.0,8.485,0.118,6.000,4.300,0.000,0.000,0.000,0.000,10.300,No
 Zone Internal Gains Nominal, 4F-B'-BED2,15.27,2.0,7.637,0.131,6.000,4.300,0.000,0.000,0.000,0.000,10.300,No
 Zone Internal Gains Nominal, 4F-B'-BED3,13.32,2.0,6.660,0.150,6.000,4.300,0.000,0.000,0.000,0.000,10.300,No
 Zone Internal Gains Nominal, 4F-B'-KITCHEN,6.84,0.0,N/A,0.000,0.000,0.000,0.000,0.000,0.000,0.000,0.000,No
 Zone Internal Gains Nominal, 4F-B'-LIVING,50.11,5.0,10.022,9.978E-002,6.000,4.300,0.000,0.000,0.000,0.000,10.300,No
 Zone Internal Gains Nominal, 4F-B'-WASH1,6.00,0.0,N/A,0.000,0.000,0.000,0.000,0.000,0.000,0.000,0.000,No
 Zone Internal Gains Nominal, 4F-B'-WASH2,6.84,0.0,N/A,0.000,0.000,0.000,0.000,0.000,0.000,0.000,0.000,No
 Zone Internal Gains Nominal, 4F-B-BED1,16.97,2.0,8.485,0.118,6.000,4.300,0.000,0.000,0.000,0.000,10.300,No
 Zone Internal Gains Nominal, 4F-B-BED2,15.28,2.0,7.638,0.131,6.000,4.300,0.000,0.000,0.000,0.000,10.300,No
 Zone Internal Gains Nominal, 4F-B-BED3,13.32,2.0,6.660,0.150,6.000,4.300,0.000,0.000,0.000,0.000,10.300,No
 Zone Internal Gains Nominal, 4F-B-KITCHEN,6.84,0.0,N/A,0.000,0.000,0.000,0.000,0.000,0.000,0.000,0.000,No
 Zone Internal Gains Nominal, 4F-B-LIVING,50.11,5.0,10.022,9.978E-002,6.000,4.300,0.000,0.000,0.000,0.000,10.300,No
 Zone Internal Gains Nominal, 4F-B-WASH1,6.00,0.0,N/A,0.000,0.000,0.000,0.000,0.000,0.000,0.000,0.000,No
 Zone Internal Gains Nominal, 4F-B-WASH2,6.84,0.0,N/A,0.000,0.000,0.000,0.000,0.000,0.000,0.000,0.000,No
 Zone Internal Gains Nominal, 4F-STAIRS-LEFT,15.12,0.0,N/A,0.000,0.000,0.000,0.000,0.000,0.000,0.000,0.000,No
 Zone Internal Gains Nominal, 4F-STAIRS-RIGHT,15.12,0.0,N/A,0.000,0.000,0.000,0.000,0.000,0.000,0.000,0.000,No
 Zone Internal Gains Nominal, 5F-A'-BED1,15.12,2.0,7.560,0.132,6.000,4.300,0.000,0.000,0.000,0.000,10.300,No
 Zone Internal Gains Nominal, 5F-A'-BED2,13.32,2.0,6.660,0.150,6.000,4.300,0.000,0.000,0.000,0.000,10.300,No
 Zone Internal Gains Nominal, 5F-A'-KITHEN,5.85,0.0,N/A,0.000,0.000,0.000,0.000,0.000,0.000,0.000,0.000,No
 Zone Internal Gains Nominal, 5F-A'-LIVING,34.32,3.0,11.439,8.742E-002,6.000,4.300,0.000,0.000,0.000,0.000,10.300,No
 Zone Internal Gains Nominal, 5F-A'-WASH,5.75,0.0,N/A,0.000,0.000,0.000,0.000,0.000,0.000,0.000,0.000,No
 Zone Internal Gains Nominal, 5F-A-BED1,15.12,2.0,7.560,0.132,6.000,4.300,0.000,0.000,0.000,0.000,10.300,No
 Zone Internal Gains Nominal, 5F-A-BED2,13.32,2.0,6.660,0.150,6.000,4.300,0.000,0.000,0.000,0.000,10.300,No
 Zone Internal Gains Nominal, 5F-A-KITHEN,5.85,0.0,N/A,0.000,0.000,0.000,0.000,0.000,0.000,0.000,0.000,No
 Zone Internal Gains Nominal, 5F-A-LIVING,34.32,3.0,11.439,8.742E-002,6.000,4.300,0.000,0.000,0.000,0.000,10.300,No
 Zone Internal Gains Nominal, 5F-A-WASH,5.75,0.0,N/A,0.000,0.000,0.000,0.000,0.000,0.000,0.000,0.000,No
 Zone Internal Gains Nominal, 5F-B'-BED1,16.97,2.0,8.485,0.118,6.000,4.300,0.000,0.000,0.000,0.000,10.300,No
 Zone Internal Gains Nominal, 5F-B'-BED2,15.27,2.0,7.637,0.131,6.000,4.300,0.000,0.000,0.000,0.000,10.300,No
 Zone Internal Gains Nominal, 5F-B'-BED3,13.32,2.0,6.660,0.150,6.000,4.300,0.000,0.000,0.000,0.000,10.300,No
 Zone Internal Gains Nominal, 5F-B'-KITCHEN,6.84,0.0,N/A,0.000,0.000,0.000,0.000,0.000,0.000,0.000,0.000,No
 Zone Internal Gains Nominal, 5F-B'-LIVING,50.11,5.0,10.022,9.978E-002,6.000,4.300,0.000,0.000,0.000,0.000,10.300,No
 Zone Internal Gains Nominal, 5F-B'-WASH1,6.00,0.0,N/A,0.000,0.000,0.000,0.000,0.000,0.000,0.000,0.000,No
 Zone Internal Gains Nominal, 5F-B'-WASH2,6.84,0.0,N/A,0.000,0.000,0.000,0.000,0.000,0.000,0.000,0.000,No
 Zone Internal Gains Nominal, 5F-B-BED1,16.97,2.0,8.485,0.118,6.000,4.300,0.000,0.000,0.000,0.000,10.300,No
 Zone Internal Gains Nominal, 5F-B-BED2,15.28,2.0,7.638,0.131,6.000,4.300,0.000,0.000,0.000,0.000,10.300,No
 Zone Internal Gains Nominal, 5F-B-BED3,13.32,2.0,6.660,0.150,6.000,4.300,0.000,0.000,0.000,0.000,10.300,No
 Zone Internal Gains Nominal, 5F-B-KITCHEN,6.84,0.0,N/A,0.000,0.000,0.000,0.000,0.000,0.000,0.000,0.000,No
 Zone Internal Gains Nominal, 5F-B-LIVING,50.11,5.0,10.022,9.978E-002,6.000,4.300,0.000,0.000,0.000,0.000,10.300,No
 Zone Internal Gains Nominal, 5F-B-WASH1,6.00,0.0,N/A,0.000,0.000,0.000,0.000,0.000,0.000,0.000,0.000,No
 Zone Internal Gains Nominal, 5F-B-WASH2,6.84,0.0,N/A,0.000,0.000,0.000,0.000,0.000,0.000,0.000,0.000,No
 Zone Internal Gains Nominal, 5F-STAIRS-LEFT,15.12,0.0,N/A,0.000,0.000,0.000,0.000,0.000,0.000,0.000,0.000,No
 Zone Internal Gains Nominal, 5F-STAIRS-RIGHT,15.12,0.0,N/A,0.000,0.000,0.000,0.000,0.000,0.000,0.000,0.000,No
! <People Internal Gains Nominal>,Name,Schedule Name,Zone Name,Zone Floor Area {m2},# Zone Occupants,Number of People {},People/Floor Area {person/m2},Floor Area per person {m2/person},Fraction Radiant,Fraction Convected,Sensible Fraction Calculation,Activity level,ASHRAE 55 Warnings,Carbon Dioxide Generation Rate,Nominal Minimum Number of People,Nominal Maximum Number of People,MRT Calculation Type,Work Efficiency, Clothing Insulation Calculation Method,Clothing Insulation Calculation Method Schedule,Clothing,Air Velocity,Fanger Calculation,Pierce Calculation,KSU Calculation
 People Internal Gains Nominal, 1F-A'-BED1 BEDROOM-A,WORKING/SCHOOLING BEDROOM OCCUPANCY,1F-A'-BED1,15.12,2.0,2.0,0.132,7.560,0.500,0.500,AutoCalculate,SEATED PEOPLE,No,3.8200E-008,0,2,Zone Averaged,WORK EFFICIENCY,Clothing Insulation Schedule,N/A,CLOTHING INSULATION SCHEDULE,AIR VELOCITY SCHEDULE,Yes,No,No
 People Internal Gains Nominal, 1F-A'-BED2 BEDROOM-A,WORKING/SCHOOLING BEDROOM OCCUPANCY,1F-A'-BED2,13.32,2.0,2.0,0.150,6.660,0.500,0.500,AutoCalculate,SEATED PEOPLE,No,3.8200E-008,0,2,Zone Averaged,WORK EFFICIENCY,Clothing Insulation Schedule,N/A,CLOTHING INSULATION SCHEDULE,AIR VELOCITY SCHEDULE,Yes,No,No
 People Internal Gains Nominal, 1F-A-BED1 BEDROOM-A,WORKING/SCHOOLING BEDROOM OCCUPANCY,1F-A-BED1,15.12,2.0,2.0,0.132,7.560,0.500,0.500,AutoCalculate,SEATED PEOPLE,No,3.8200E-008,0,2,Zone Averaged,WORK EFFICIENCY,Clothing Insulation Schedule,N/A,CLOTHING INSULATION SCHEDULE,AIR VELOCITY SCHEDULE,Yes,No,No
 People Internal Gains Nominal, 1F-A-BED2 BEDROOM-A,WORKING/SCHOOLING BEDROOM OCCUPANCY,1F-A-BED2,13.32,2.0,2.0,0.150,6.660,0.500,0.500,AutoCalculate,SEATED PEOPLE,No,3.8200E-008,0,2,Zone Averaged,WORK EFFICIENCY,Clothing Insulation Schedule,N/A,CLOTHING INSULATION SCHEDULE,AIR VELOCITY SCHEDULE,Yes,No,No
 People Internal Gains Nominal, 2F-A'-BED1 BEDROOM-A,WORKING/SCHOOLING BEDROOM OCCUPANCY,2F-A'-BED1,15.12,2.0,2.0,0.132,7.560,0.500,0.500,AutoCalculate,SEATED PEOPLE,No,3.8200E-008,0,2,Zone Averaged,WORK EFFICIENCY,Clothing Insulation Schedule,N/A,CLOTHING INSULATION SCHEDULE,AIR VELOCITY SCHEDULE,Yes,No,No
 People Internal Gains Nominal, 2F-A'-BED2 BEDROOM-A,WORKING/SCHOOLING BEDROOM OCCUPANCY,2F-A'-BED2,13.32,2.0,2.0,0.150,6.660,0.500,0.500,AutoCalculate,SEATED PEOPLE,No,3.8200E-008,0,2,Zone Averaged,WORK EFFICIENCY,Clothing Insulation Schedule,N/A,CLOTHING INSULATION SCHEDULE,AIR VELOCITY SCHEDULE,Yes,No,No
 People Internal Gains Nominal, 2F-A-BED1 BEDROOM-A,WORKING/SCHOOLING BEDROOM OCCUPANCY,2F-A-BED1,15.12,2.0,2.0,0.132,7.560,0.500,0.500,AutoCalculate,SEATED PEOPLE,No,3.8200E-008,0,2,Zone Averaged,WORK EFFICIENCY,Clothing Insulation Schedule,N/A,CLOTHING INSULATION SCHEDULE,AIR VELOCITY SCHEDULE,Yes,No,No
 People Internal Gains Nominal, 2F-A-BED2 BEDROOM-A,WORKING/SCHOOLING BEDROOM OCCUPANCY,2F-A-BED2,13.32,2.0,2.0,0.150,6.660,0.500,0.500,AutoCalculate,SEATED PEOPLE,No,3.8200E-008,0,2,Zone Averaged,WORK EFFICIENCY,Clothing Insulation Schedule,N/A,CLOTHING INSULATION SCHEDULE,AIR VELOCITY SCHEDULE,Yes,No,No
 People Internal Gains Nominal, 3F-A'-BED1 BEDROOM-A,WORKING/SCHOOLING BEDROOM OCCUPANCY,3F-A'-BED1,15.12,2.0,2.0,0.132,7.560,0.500,0.500,AutoCalculate,SEATED PEOPLE,No,3.8200E-008,0,2,Zone Averaged,WORK EFFICIENCY,Clothing Insulation Schedule,N/A,CLOTHING INSULATION SCHEDULE,AIR VELOCITY SCHEDULE,Yes,No,No
 People Internal Gains Nominal, 3F-A'-BED2 BEDROOM-A,WORKING/SCHOOLING BEDROOM OCCUPANCY,3F-A'-BED2,13.32,2.0,2.0,0.150,6.660,0.500,0.500,AutoCalculate,SEATED PEOPLE,No,3.8200E-008,0,2,Zone Averaged,WORK EFFICIENCY,Clothing Insulation Schedule,N/A,CLOTHING INSULATION SCHEDULE,AIR VELOCITY SCHEDULE,Yes,No,No
 People Internal Gains Nominal, 3F-A-BED1 BEDROOM-A,WORKING/SCHOOLING BEDROOM OCCUPANCY,3F-A-BED1,15.12,2.0,2.0,0.132,7.560,0.500,0.500,AutoCalculate,SEATED PEOPLE,No,3.8200E-008,0,2,Zone Averaged,WORK EFFICIENCY,Clothing Insulation Schedule,N/A,CLOTHING INSULATION SCHEDULE,AIR VELOCITY SCHEDULE,Yes,No,No
 People Internal Gains Nominal, 3F-A-BED2 BEDROOM-A,WORKING/SCHOOLING BEDROOM OCCUPANCY,3F-A-BED2,13.32,2.0,2.0,0.150,6.660,0.500,0.500,AutoCalculate,SEATED PEOPLE,No,3.8200E-008,0,2,Zone Averaged,WORK EFFICIENCY,Clothing Insulation Schedule,N/A,CLOTHING INSULATION SCHEDULE,AIR VELOCITY SCHEDULE,Yes,No,No
 People Internal Gains Nominal, 4F-A'-BED1 BEDROOM-A,WORKING/SCHOOLING BEDROOM OCCUPANCY,4F-A'-BED1,15.12,2.0,2.0,0.132,7.560,0.500,0.500,AutoCalculate,SEATED PEOPLE,No,3.8200E-008,0,2,Zone Averaged,WORK EFFICIENCY,Clothing Insulation Schedule,N/A,CLOTHING INSULATION SCHEDULE,AIR VELOCITY SCHEDULE,Yes,No,No
 People Internal Gains Nominal, 4F-A'-BED2 BEDROOM-A,WORKING/SCHOOLING BEDROOM OCCUPANCY,4F-A'-BED2,13.32,2.0,2.0,0.150,6.660,0.500,0.500,AutoCalculate,SEATED PEOPLE,No,3.8200E-008,0,2,Zone Averaged,WORK EFFICIENCY,Clothing Insulation Schedule,N/A,CLOTHING INSULATION SCHEDULE,AIR VELOCITY SCHEDULE,Yes,No,No
 People Internal Gains Nominal, 4F-A-BED1 BEDROOM-A,WORKING/SCHOOLING BEDROOM OCCUPANCY,4F-A-BED1,15.12,2.0,2.0,0.132,7.560,0.500,0.500,AutoCalculate,SEATED PEOPLE,No,3.8200E-008,0,2,Zone Averaged,WORK EFFICIENCY,Clothing Insulation Schedule,N/A,CLOTHING INSULATION SCHEDULE,AIR VELOCITY SCHEDULE,Yes,No,No
 People Internal Gains Nominal, 4F-A-BED2 BEDROOM-A,WORKING/SCHOOLING BEDROOM OCCUPANCY,4F-A-BED2,13.32,2.0,2.0,0.150,6.660,0.500,0.500,AutoCalculate,SEATED PEOPLE,No,3.8200E-008,0,2,Zone Averaged,WORK EFFICIENCY,Clothing Insulation Schedule,N/A,CLOTHING INSULATION SCHEDULE,AIR VELOCITY SCHEDULE,Yes,No,No
 People Internal Gains Nominal, 5F-A'-BED1 BEDROOM-A,WORKING/SCHOOLING BEDROOM OCCUPANCY,5F-A'-BED1,15.12,2.0,2.0,0.132,7.560,0.500,0.500,AutoCalculate,SEATED PEOPLE,No,3.8200E-008,0,2,Zone Averaged,WORK EFFICIENCY,Clothing Insulation Schedule,N/A,CLOTHING INSULATION SCHEDULE,AIR VELOCITY SCHEDULE,Yes,No,No
 People Internal Gains Nominal, 5F-A'-BED2 BEDROOM-A,WORKING/SCHOOLING BEDROOM OCCUPANCY,5F-A'-BED2,13.32,2.0,2.0,0.150,6.660,0.500,0.500,AutoCalculate,SEATED PEOPLE,No,3.8200E-008,0,2,Zone Averaged,WORK EFFICIENCY,Clothing Insulation Schedule,N/A,CLOTHING INSULATION SCHEDULE,AIR VELOCITY SCHEDULE,Yes,No,No
 People Internal Gains Nominal, 5F-A-BED1 BEDROOM-A,WORKING/SCHOOLING BEDROOM OCCUPANCY,5F-A-BED1,15.12,2.0,2.0,0.132,7.560,0.500,0.500,AutoCalculate,SEATED PEOPLE,No,3.8200E-008,0,2,Zone Averaged,WORK EFFICIENCY,Clothing Insulation Schedule,N/A,CLOTHING INSULATION SCHEDULE,AIR VELOCITY SCHEDULE,Yes,No,No
 People Internal Gains Nominal, 5F-A-BED2 BEDROOM-A,WORKING/SCHOOLING BEDROOM OCCUPANCY,5F-A-BED2,13.32,2.0,2.0,0.150,6.660,0.500,0.500,AutoCalculate,SEATED PEOPLE,No,3.8200E-008,0,2,Zone Averaged,WORK EFFICIENCY,Clothing Insulation Schedule,N/A,CLOTHING INSULATION SCHEDULE,AIR VELOCITY SCHEDULE,Yes,No,No
 People Internal Gains Nominal, 1F-A'-LIVING LIVING-A,RETIRED EXCLUDED FML LIVINGROOM  OCCUPANCY,1F-A'-LIVING,34.32,3.0,3.0,8.742E-002,11.439,0.500,0.500,AutoCalculate,ACTIVITY PEOPLE,No,3.8200E-008,0,3,Zone Averaged,WORK EFFICIENCY,Clothing Insulation Schedule,N/A,CLOTHING INSULATION SCHEDULE,AIR VELOCITY SCHEDULE,Yes,No,No
 People Internal Gains Nominal, 1F-A-LIVING LIVING-A,RETIRED EXCLUDED FML LIVINGROOM  OCCUPANCY,1F-A-LIVING,34.32,3.0,3.0,8.742E-002,11.439,0.500,0.500,AutoCalculate,ACTIVITY PEOPLE,No,3.8200E-008,0,3,Zone Averaged,WORK EFFICIENCY,Clothing Insulation Schedule,N/A,CLOTHING INSULATION SCHEDULE,AIR VELOCITY SCHEDULE,Yes,No,No
 People Internal Gains Nominal, 5F-A'-LIVING LIVING-A,RETIRED EXCLUDED FML LIVINGROOM  OCCUPANCY,5F-A'-LIVING,34.32,3.0,3.0,8.742E-002,11.439,0.500,0.500,AutoCalculate,ACTIVITY PEOPLE,No,3.8200E-008,0,3,Zone Averaged,WORK EFFICIENCY,Clothing Insulation Schedule,N/A,CLOTHING INSULATION SCHEDULE,AIR VELOCITY SCHEDULE,Yes,No,No
 People Internal Gains Nominal, 5F-A-LIVING LIVING-A,RETIRED EXCLUDED FML LIVINGROOM  OCCUPANCY,5F-A-LIVING,34.32,3.0,3.0,8.742E-002,11.439,0.500,0.500,AutoCalculate,ACTIVITY PEOPLE,No,3.8200E-008,0,3,Zone Averaged,WORK EFFICIENCY,Clothing Insulation Schedule,N/A,CLOTHING INSULATION SCHEDULE,AIR VELOCITY SCHEDULE,Yes,No,No
 People Internal Gains Nominal, 2F-A'-LIVING LIVING-A,RETIRED EXCLUDED FML LIVINGROOM  OCCUPANCY,2F-A'-LIVING,34.32,3.0,3.0,8.742E-002,11.439,0.500,0.500,AutoCalculate,ACTIVITY PEOPLE,No,3.8200E-008,0,3,Zone Averaged,WORK EFFICIENCY,Clothing Insulation Schedule,N/A,CLOTHING INSULATION SCHEDULE,AIR VELOCITY SCHEDULE,Yes,No,No
 People Internal Gains Nominal, 2F-A-LIVING LIVING-A,RETIRED EXCLUDED FML LIVINGROOM  OCCUPANCY,2F-A-LIVING,34.32,3.0,3.0,8.742E-002,11.439,0.500,0.500,AutoCalculate,ACTIVITY PEOPLE,No,3.8200E-008,0,3,Zone Averaged,WORK EFFICIENCY,Clothing Insulation Schedule,N/A,CLOTHING INSULATION SCHEDULE,AIR VELOCITY SCHEDULE,Yes,No,No
 People Internal Gains Nominal, 4F-A'-LIVING LIVING-A,RETIRED EXCLUDED FML LIVINGROOM  OCCUPANCY,4F-A'-LIVING,34.32,3.0,3.0,8.742E-002,11.439,0.500,0.500,AutoCalculate,ACTIVITY PEOPLE,No,3.8200E-008,0,3,Zone Averaged,WORK EFFICIENCY,Clothing Insulation Schedule,N/A,CLOTHING INSULATION SCHEDULE,AIR VELOCITY SCHEDULE,Yes,No,No
 People Internal Gains Nominal, 4F-A-LIVING LIVING-A,RETIRED EXCLUDED FML LIVINGROOM  OCCUPANCY,4F-A-LIVING,34.32,3.0,3.0,8.742E-002,11.439,0.500,0.500,AutoCalculate,ACTIVITY PEOPLE,No,3.8200E-008,0,3,Zone Averaged,WORK EFFICIENCY,Clothing Insulation Schedule,N/A,CLOTHING INSULATION SCHEDULE,AIR VELOCITY SCHEDULE,Yes,No,No
 People Internal Gains Nominal, 3F-A'-LIVING LIVING-A,RETIRED EXCLUDED FML LIVINGROOM  OCCUPANCY,3F-A'-LIVING,34.32,3.0,3.0,8.742E-002,11.439,0.500,0.500,AutoCalculate,ACTIVITY PEOPLE,No,3.8200E-008,0,3,Zone Averaged,WORK EFFICIENCY,Clothing Insulation Schedule,N/A,CLOTHING INSULATION SCHEDULE,AIR VELOCITY SCHEDULE,Yes,No,No
 People Internal Gains Nominal, 3F-A-LIVING LIVING-A,RETIRED EXCLUDED FML LIVINGROOM  OCCUPANCY,3F-A-LIVING,34.32,3.0,3.0,8.742E-002,11.439,0.500,0.500,AutoCalculate,ACTIVITY PEOPLE,No,3.8200E-008,0,3,Zone Averaged,WORK EFFICIENCY,Clothing Insulation Schedule,N/A,CLOTHING INSULATION SCHEDULE,AIR VELOCITY SCHEDULE,Yes,No,No
 People Internal Gains Nominal, 5F-B'-BED1 BEDROOM-B,RETIRED BEDROOM OCCUPANCY,5F-B'-BED1,16.97,2.0,2.0,0.118,8.485,0.500,0.500,AutoCalculate,SEATED PEOPLE,No,3.8200E-008,0,2,Zone Averaged,WORK EFFICIENCY,Clothing Insulation Schedule,N/A,CLOTHING INSULATION SCHEDULE,AIR VELOCITY SCHEDULE,Yes,No,No
 People Internal Gains Nominal, 5F-B'-BED2 BEDROOM-B,RETIRED BEDROOM OCCUPANCY,5F-B'-BED2,15.27,2.0,2.0,0.131,7.637,0.500,0.500,AutoCalculate,SEATED PEOPLE,No,3.8200E-008,0,2,Zone Averaged,WORK EFFICIENCY,Clothing Insulation Schedule,N/A,CLOTHING INSULATION SCHEDULE,AIR VELOCITY SCHEDULE,Yes,No,No
 People Internal Gains Nominal, 5F-B'-BED3 BEDROOM-B,RETIRED BEDROOM OCCUPANCY,5F-B'-BED3,13.32,2.0,2.0,0.150,6.660,0.500,0.500,AutoCalculate,SEATED PEOPLE,No,3.8200E-008,0,2,Zone Averaged,WORK EFFICIENCY,Clothing Insulation Schedule,N/A,CLOTHING INSULATION SCHEDULE,AIR VELOCITY SCHEDULE,Yes,No,No
 People Internal Gains Nominal, 5F-B-BED1 BEDROOM-B,RETIRED BEDROOM OCCUPANCY,5F-B-BED1,16.97,2.0,2.0,0.118,8.485,0.500,0.500,AutoCalculate,SEATED PEOPLE,No,3.8200E-008,0,2,Zone Averaged,WORK EFFICIENCY,Clothing Insulation Schedule,N/A,CLOTHING INSULATION SCHEDULE,AIR VELOCITY SCHEDULE,Yes,No,No
 People Internal Gains Nominal, 1F-B'-BED1 BEDROOM-B,RETIRED BEDROOM OCCUPANCY,1F-B'-BED1,16.97,2.0,2.0,0.118,8.485,0.500,0.500,AutoCalculate,SEATED PEOPLE,No,3.8200E-008,0,2,Zone Averaged,WORK EFFICIENCY,Clothing Insulation Schedule,N/A,CLOTHING INSULATION SCHEDULE,AIR VELOCITY SCHEDULE,Yes,No,No
 People Internal Gains Nominal, 1F-B'-BED2 BEDROOM-B,RETIRED BEDROOM OCCUPANCY,1F-B'-BED2,15.27,2.0,2.0,0.131,7.637,0.500,0.500,AutoCalculate,SEATED PEOPLE,No,3.8200E-008,0,2,Zone Averaged,WORK EFFICIENCY,Clothing Insulation Schedule,N/A,CLOTHING INSULATION SCHEDULE,AIR VELOCITY SCHEDULE,Yes,No,No
 People Internal Gains Nominal, 1F-B'-BED3 BEDROOM-B,RETIRED BEDROOM OCCUPANCY,1F-B'-BED3,13.32,2.0,2.0,0.150,6.660,0.500,0.500,AutoCalculate,SEATED PEOPLE,No,3.8200E-008,0,2,Zone Averaged,WORK EFFICIENCY,Clothing Insulation Schedule,N/A,CLOTHING INSULATION SCHEDULE,AIR VELOCITY SCHEDULE,Yes,No,No
 People Internal Gains Nominal, 1F-B-BED1 BEDROOM-B,RETIRED BEDROOM OCCUPANCY,1F-B-BED1,16.97,2.0,2.0,0.118,8.485,0.500,0.500,AutoCalculate,SEATED PEOPLE,No,3.8200E-008,0,2,Zone Averaged,WORK EFFICIENCY,Clothing Insulation Schedule,N/A,CLOTHING INSULATION SCHEDULE,AIR VELOCITY SCHEDULE,Yes,No,No
 People Internal Gains Nominal, 1F-B-BED2 BEDROOM-B,RETIRED BEDROOM OCCUPANCY,1F-B-BED2,15.28,2.0,2.0,0.131,7.638,0.500,0.500,AutoCalculate,SEATED PEOPLE,No,3.8200E-008,0,2,Zone Averaged,WORK EFFICIENCY,Clothing Insulation Schedule,N/A,CLOTHING INSULATION SCHEDULE,AIR VELOCITY SCHEDULE,Yes,No,No
 People Internal Gains Nominal, 1F-B-BED3 BEDROOM-B,RETIRED BEDROOM OCCUPANCY,1F-B-BED3,13.32,2.0,2.0,0.150,6.660,0.500,0.500,AutoCalculate,SEATED PEOPLE,No,3.8200E-008,0,2,Zone Averaged,WORK EFFICIENCY,Clothing Insulation Schedule,N/A,CLOTHING INSULATION SCHEDULE,AIR VELOCITY SCHEDULE,Yes,No,No
 People Internal Gains Nominal, 5F-B-BED2 BEDROOM-B,RETIRED BEDROOM OCCUPANCY,5F-B-BED2,15.28,2.0,2.0,0.131,7.638,0.500,0.500,AutoCalculate,SEATED PEOPLE,No,3.8200E-008,0,2,Zone Averaged,WORK EFFICIENCY,Clothing Insulation Schedule,N/A,CLOTHING INSULATION SCHEDULE,AIR VELOCITY SCHEDULE,Yes,No,No
 People Internal Gains Nominal, 5F-B-BED3 BEDROOM-B,RETIRED BEDROOM OCCUPANCY,5F-B-BED3,13.32,2.0,2.0,0.150,6.660,0.500,0.500,AutoCalculate,SEATED PEOPLE,No,3.8200E-008,0,2,Zone Averaged,WORK EFFICIENCY,Clothing Insulation Schedule,N/A,CLOTHING INSULATION SCHEDULE,AIR VELOCITY SCHEDULE,Yes,No,No
 People Internal Gains Nominal, 4F-B'-BED1 BEDROOM-B,RETIRED BEDROOM OCCUPANCY,4F-B'-BED1,16.97,2.0,2.0,0.118,8.485,0.500,0.500,AutoCalculate,SEATED PEOPLE,No,3.8200E-008,0,2,Zone Averaged,WORK EFFICIENCY,Clothing Insulation Schedule,N/A,CLOTHING INSULATION SCHEDULE,AIR VELOCITY SCHEDULE,Yes,No,No
 People Internal Gains Nominal, 4F-B'-BED2 BEDROOM-B,RETIRED BEDROOM OCCUPANCY,4F-B'-BED2,15.27,2.0,2.0,0.131,7.637,0.500,0.500,AutoCalculate,SEATED PEOPLE,No,3.8200E-008,0,2,Zone Averaged,WORK EFFICIENCY,Clothing Insulation Schedule,N/A,CLOTHING INSULATION SCHEDULE,AIR VELOCITY SCHEDULE,Yes,No,No
 People Internal Gains Nominal, 2F-B'-BED1 BEDROOM-B,RETIRED BEDROOM OCCUPANCY,2F-B'-BED1,16.97,2.0,2.0,0.118,8.485,0.500,0.500,AutoCalculate,SEATED PEOPLE,No,3.8200E-008,0,2,Zone Averaged,WORK EFFICIENCY,Clothing Insulation Schedule,N/A,CLOTHING INSULATION SCHEDULE,AIR VELOCITY SCHEDULE,Yes,No,No
 People Internal Gains Nominal, 2F-B'-BED2 BEDROOM-B,RETIRED BEDROOM OCCUPANCY,2F-B'-BED2,15.27,2.0,2.0,0.131,7.637,0.500,0.500,AutoCalculate,SEATED PEOPLE,No,3.8200E-008,0,2,Zone Averaged,WORK EFFICIENCY,Clothing Insulation Schedule,N/A,CLOTHING INSULATION SCHEDULE,AIR VELOCITY SCHEDULE,Yes,No,No
 People Internal Gains Nominal, 2F-B'-BED3 BEDROOM-B,RETIRED BEDROOM OCCUPANCY,2F-B'-BED3,13.32,2.0,2.0,0.150,6.660,0.500,0.500,AutoCalculate,SEATED PEOPLE,No,3.8200E-008,0,2,Zone Averaged,WORK EFFICIENCY,Clothing Insulation Schedule,N/A,CLOTHING INSULATION SCHEDULE,AIR VELOCITY SCHEDULE,Yes,No,No
 People Internal Gains Nominal, 2F-B-BED1 BEDROOM-B,RETIRED BEDROOM OCCUPANCY,2F-B-BED1,16.97,2.0,2.0,0.118,8.485,0.500,0.500,AutoCalculate,SEATED PEOPLE,No,3.8200E-008,0,2,Zone Averaged,WORK EFFICIENCY,Clothing Insulation Schedule,N/A,CLOTHING INSULATION SCHEDULE,AIR VELOCITY SCHEDULE,Yes,No,No
 People Internal Gains Nominal, 2F-B-BED2 BEDROOM-B,RETIRED BEDROOM OCCUPANCY,2F-B-BED2,15.28,2.0,2.0,0.131,7.638,0.500,0.500,AutoCalculate,SEATED PEOPLE,No,3.8200E-008,0,2,Zone Averaged,WORK EFFICIENCY,Clothing Insulation Schedule,N/A,CLOTHING INSULATION SCHEDULE,AIR VELOCITY SCHEDULE,Yes,No,No
 People Internal Gains Nominal, 2F-B-BED3 BEDROOM-B,RETIRED BEDROOM OCCUPANCY,2F-B-BED3,13.32,2.0,2.0,0.150,6.660,0.500,0.500,AutoCalculate,SEATED PEOPLE,No,3.8200E-008,0,2,Zone Averaged,WORK EFFICIENCY,Clothing Insulation Schedule,N/A,CLOTHING INSULATION SCHEDULE,AIR VELOCITY SCHEDULE,Yes,No,No
 People Internal Gains Nominal, 4F-B'-BED3 BEDROOM-B,RETIRED BEDROOM OCCUPANCY,4F-B'-BED3,13.32,2.0,2.0,0.150,6.660,0.500,0.500,AutoCalculate,SEATED PEOPLE,No,3.8200E-008,0,2,Zone Averaged,WORK EFFICIENCY,Clothing Insulation Schedule,N/A,CLOTHING INSULATION SCHEDULE,AIR VELOCITY SCHEDULE,Yes,No,No
 People Internal Gains Nominal, 4F-B-BED1 BEDROOM-B,RETIRED BEDROOM OCCUPANCY,4F-B-BED1,16.97,2.0,2.0,0.118,8.485,0.500,0.500,AutoCalculate,SEATED PEOPLE,No,3.8200E-008,0,2,Zone Averaged,WORK EFFICIENCY,Clothing Insulation Schedule,N/A,CLOTHING INSULATION SCHEDULE,AIR VELOCITY SCHEDULE,Yes,No,No
 People Internal Gains Nominal, 4F-B-BED2 BEDROOM-B,RETIRED BEDROOM OCCUPANCY,4F-B-BED2,15.28,2.0,2.0,0.131,7.638,0.500,0.500,AutoCalculate,SEATED PEOPLE,No,3.8200E-008,0,2,Zone Averaged,WORK EFFICIENCY,Clothing Insulation Schedule,N/A,CLOTHING INSULATION SCHEDULE,AIR VELOCITY SCHEDULE,Yes,No,No
 People Internal Gains Nominal, 4F-B-BED3 BEDROOM-B,RETIRED BEDROOM OCCUPANCY,4F-B-BED3,13.32,2.0,2.0,0.150,6.660,0.500,0.500,AutoCalculate,SEATED PEOPLE,No,3.8200E-008,0,2,Zone Averaged,WORK EFFICIENCY,Clothing Insulation Schedule,N/A,CLOTHING INSULATION SCHEDULE,AIR VELOCITY SCHEDULE,Yes,No,No
 People Internal Gains Nominal, 3F-B'-BED1 BEDROOM-B,RETIRED BEDROOM OCCUPANCY,3F-B'-BED1,16.97,2.0,2.0,0.118,8.485,0.500,0.500,AutoCalculate,SEATED PEOPLE,No,3.8200E-008,0,2,Zone Averaged,WORK EFFICIENCY,Clothing Insulation Schedule,N/A,CLOTHING INSULATION SCHEDULE,AIR VELOCITY SCHEDULE,Yes,No,No
 People Internal Gains Nominal, 3F-B'-BED2 BEDROOM-B,RETIRED BEDROOM OCCUPANCY,3F-B'-BED2,15.27,2.0,2.0,0.131,7.637,0.500,0.500,AutoCalculate,SEATED PEOPLE,No,3.8200E-008,0,2,Zone Averaged,WORK EFFICIENCY,Clothing Insulation Schedule,N/A,CLOTHING INSULATION SCHEDULE,AIR VELOCITY SCHEDULE,Yes,No,No
 People Internal Gains Nominal, 3F-B'-BED3 BEDROOM-B,RETIRED BEDROOM OCCUPANCY,3F-B'-BED3,13.32,2.0,2.0,0.150,6.660,0.500,0.500,AutoCalculate,SEATED PEOPLE,No,3.8200E-008,0,2,Zone Averaged,WORK EFFICIENCY,Clothing Insulation Schedule,N/A,CLOTHING INSULATION SCHEDULE,AIR VELOCITY SCHEDULE,Yes,No,No
 People Internal Gains Nominal, 3F-B-BED1 BEDROOM-B,RETIRED BEDROOM OCCUPANCY,3F-B-BED1,16.97,2.0,2.0,0.118,8.485,0.500,0.500,AutoCalculate,SEATED PEOPLE,No,3.8200E-008,0,2,Zone Averaged,WORK EFFICIENCY,Clothing Insulation Schedule,N/A,CLOTHING INSULATION SCHEDULE,AIR VELOCITY SCHEDULE,Yes,No,No
 People Internal Gains Nominal, 3F-B-BED2 BEDROOM-B,RETIRED BEDROOM OCCUPANCY,3F-B-BED2,15.28,2.0,2.0,0.131,7.638,0.500,0.500,AutoCalculate,SEATED PEOPLE,No,3.8200E-008,0,2,Zone Averaged,WORK EFFICIENCY,Clothing Insulation Schedule,N/A,CLOTHING INSULATION SCHEDULE,AIR VELOCITY SCHEDULE,Yes,No,No
 People Internal Gains Nominal, 3F-B-BED3 BEDROOM-B,RETIRED BEDROOM OCCUPANCY,3F-B-BED3,13.32,2.0,2.0,0.150,6.660,0.500,0.500,AutoCalculate,SEATED PEOPLE,No,3.8200E-008,0,2,Zone Averaged,WORK EFFICIENCY,Clothing Insulation Schedule,N/A,CLOTHING INSULATION SCHEDULE,AIR VELOCITY SCHEDULE,Yes,No,No
 People Internal Gains Nominal, 5F-B'-LIVING LIVING-B,RETIRED INCLUDED FML LIVINGROOM OCCUPANCY,5F-B'-LIVING,50.11,5.0,5.0,9.978E-002,10.022,0.500,0.500,AutoCalculate,ACTIVITY PEOPLE,No,3.8200E-008,0,5,Zone Averaged,WORK EFFICIENCY,Clothing Insulation Schedule,N/A,CLOTHING INSULATION SCHEDULE,AIR VELOCITY SCHEDULE,Yes,No,No
 People Internal Gains Nominal, 5F-B-LIVING LIVING-B,RETIRED INCLUDED FML LIVINGROOM OCCUPANCY,5F-B-LIVING,50.11,5.0,5.0,9.978E-002,10.022,0.500,0.500,AutoCalculate,ACTIVITY PEOPLE,No,3.8200E-008,0,5,Zone Averaged,WORK EFFICIENCY,Clothing Insulation Schedule,N/A,CLOTHING INSULATION SCHEDULE,AIR VELOCITY SCHEDULE,Yes,No,No
 People Internal Gains Nominal, 1F-B'-LIVING LIVING-B,RETIRED INCLUDED FML LIVINGROOM OCCUPANCY,1F-B'-LIVING,50.11,5.0,5.0,9.978E-002,10.022,0.500,0.500,AutoCalculate,ACTIVITY PEOPLE,No,3.8200E-008,0,5,Zone Averaged,WORK EFFICIENCY,Clothing Insulation Schedule,N/A,CLOTHING INSULATION SCHEDULE,AIR VELOCITY SCHEDULE,Yes,No,No
 People Internal Gains Nominal, 1F-B-LIVING LIVING-B,RETIRED INCLUDED FML LIVINGROOM OCCUPANCY,1F-B-LIVING,50.11,5.0,5.0,9.978E-002,10.022,0.500,0.500,AutoCalculate,ACTIVITY PEOPLE,No,3.8200E-008,0,5,Zone Averaged,WORK EFFICIENCY,Clothing Insulation Schedule,N/A,CLOTHING INSULATION SCHEDULE,AIR VELOCITY SCHEDULE,Yes,No,No
 People Internal Gains Nominal, 4F-B'-LIVING LIVING-B,RETIRED INCLUDED FML LIVINGROOM OCCUPANCY,4F-B'-LIVING,50.11,5.0,5.0,9.978E-002,10.022,0.500,0.500,AutoCalculate,ACTIVITY PEOPLE,No,3.8200E-008,0,5,Zone Averaged,WORK EFFICIENCY,Clothing Insulation Schedule,N/A,CLOTHING INSULATION SCHEDULE,AIR VELOCITY SCHEDULE,Yes,No,No
 People Internal Gains Nominal, 4F-B-LIVING LIVING-B,RETIRED INCLUDED FML LIVINGROOM OCCUPANCY,4F-B-LIVING,50.11,5.0,5.0,9.978E-002,10.022,0.500,0.500,AutoCalculate,ACTIVITY PEOPLE,No,3.8200E-008,0,5,Zone Averaged,WORK EFFICIENCY,Clothing Insulation Schedule,N/A,CLOTHING INSULATION SCHEDULE,AIR VELOCITY SCHEDULE,Yes,No,No
 People Internal Gains Nominal, 2F-B'-LIVING LIVING-B,RETIRED INCLUDED FML LIVINGROOM OCCUPANCY,2F-B'-LIVING,50.11,5.0,5.0,9.978E-002,10.022,0.500,0.500,AutoCalculate,ACTIVITY PEOPLE,No,3.8200E-008,0,5,Zone Averaged,WORK EFFICIENCY,Clothing Insulation Schedule,N/A,CLOTHING INSULATION SCHEDULE,AIR VELOCITY SCHEDULE,Yes,No,No
 People Internal Gains Nominal, 2F-B-LIVING LIVING-B,RETIRED INCLUDED FML LIVINGROOM OCCUPANCY,2F-B-LIVING,50.11,5.0,5.0,9.978E-002,10.022,0.500,0.500,AutoCalculate,ACTIVITY PEOPLE,No,3.8200E-008,0,5,Zone Averaged,WORK EFFICIENCY,Clothing Insulation Schedule,N/A,CLOTHING INSULATION SCHEDULE,AIR VELOCITY SCHEDULE,Yes,No,No
 People Internal Gains Nominal, 3F-B'-LIVING LIVING-B,RETIRED INCLUDED FML LIVINGROOM OCCUPANCY,3F-B'-LIVING,50.11,5.0,5.0,9.978E-002,10.022,0.500,0.500,AutoCalculate,ACTIVITY PEOPLE,No,3.8200E-008,0,5,Zone Averaged,WORK EFFICIENCY,Clothing Insulation Schedule,N/A,CLOTHING INSULATION SCHEDULE,AIR VELOCITY SCHEDULE,Yes,No,No
 People Internal Gains Nominal, 3F-B-LIVING LIVING-B,RETIRED INCLUDED FML LIVINGROOM OCCUPANCY,3F-B-LIVING,50.11,5.0,5.0,9.978E-002,10.022,0.500,0.500,AutoCalculate,ACTIVITY PEOPLE,No,3.8200E-008,0,5,Zone Averaged,WORK EFFICIENCY,Clothing Insulation Schedule,N/A,CLOTHING INSULATION SCHEDULE,AIR VELOCITY SCHEDULE,Yes,No,No
! <Lights Internal Gains Nominal>,Name,Schedule Name,Zone Name,Zone Floor Area {m2},# Zone Occupants,Lighting Level {W},Lights/Floor Area {W/m2},Lights per person {W/person},Fraction Return Air,Fraction Radiant,Fraction Short Wave,Fraction Convected,Fraction Replaceable,End-Use Category,Nominal Minimum Lighting Level {W},Nominal Maximum Lighting Level {W}
 Lights Internal Gains Nominal, 1F-A'-BED1 LIGHTS-BEDROOM-A,BEDROOM LIGHT,1F-A'-BED1,15.12,2.0,90.720,6.000,45.360,0.000,0.720,0.200,8.000E-002,1.000,General,0.000,90.720
 Lights Internal Gains Nominal, 1F-A'-BED2 LIGHTS-BEDROOM-A,BEDROOM LIGHT,1F-A'-BED2,13.32,2.0,79.920,6.000,39.960,0.000,0.720,0.200,8.000E-002,1.000,General,0.000,79.920
 Lights Internal Gains Nominal, 1F-A-BED1 LIGHTS-BEDROOM-A,BEDROOM LIGHT,1F-A-BED1,15.12,2.0,90.720,6.000,45.360,0.000,0.720,0.200,8.000E-002,1.000,General,0.000,90.720
 Lights Internal Gains Nominal, 1F-A-BED2 LIGHTS-BEDROOM-A,BEDROOM LIGHT,1F-A-BED2,13.32,2.0,79.920,6.000,39.960,0.000,0.720,0.200,8.000E-002,1.000,General,0.000,79.920
 Lights Internal Gains Nominal, 2F-A'-BED1 LIGHTS-BEDROOM-A,BEDROOM LIGHT,2F-A'-BED1,15.12,2.0,90.720,6.000,45.360,0.000,0.720,0.200,8.000E-002,1.000,General,0.000,90.720
 Lights Internal Gains Nominal, 2F-A'-BED2 LIGHTS-BEDROOM-A,BEDROOM LIGHT,2F-A'-BED2,13.32,2.0,79.920,6.000,39.960,0.000,0.720,0.200,8.000E-002,1.000,General,0.000,79.920
 Lights Internal Gains Nominal, 2F-A-BED1 LIGHTS-BEDROOM-A,BEDROOM LIGHT,2F-A-BED1,15.12,2.0,90.720,6.000,45.360,0.000,0.720,0.200,8.000E-002,1.000,General,0.000,90.720
 Lights Internal Gains Nominal, 2F-A-BED2 LIGHTS-BEDROOM-A,BEDROOM LIGHT,2F-A-BED2,13.32,2.0,79.920,6.000,39.960,0.000,0.720,0.200,8.000E-002,1.000,General,0.000,79.920
 Lights Internal Gains Nominal, 3F-A'-BED1 LIGHTS-BEDROOM-A,BEDROOM LIGHT,3F-A'-BED1,15.12,2.0,90.720,6.000,45.360,0.000,0.720,0.200,8.000E-002,1.000,General,0.000,90.720
 Lights Internal Gains Nominal, 3F-A'-BED2 LIGHTS-BEDROOM-A,BEDROOM LIGHT,3F-A'-BED2,13.32,2.0,79.920,6.000,39.960,0.000,0.720,0.200,8.000E-002,1.000,General,0.000,79.920
 Lights Internal Gains Nominal, 3F-A-BED1 LIGHTS-BEDROOM-A,BEDROOM LIGHT,3F-A-BED1,15.12,2.0,90.720,6.000,45.360,0.000,0.720,0.200,8.000E-002,1.000,General,0.000,90.720
 Lights Internal Gains Nominal, 3F-A-BED2 LIGHTS-BEDROOM-A,BEDROOM LIGHT,3F-A-BED2,13.32,2.0,79.920,6.000,39.960,0.000,0.720,0.200,8.000E-002,1.000,General,0.000,79.920
 Lights Internal Gains Nominal, 4F-A'-BED1 LIGHTS-BEDROOM-A,BEDROOM LIGHT,4F-A'-BED1,15.12,2.0,90.720,6.000,45.360,0.000,0.720,0.200,8.000E-002,1.000,General,0.000,90.720
 Lights Internal Gains Nominal, 4F-A'-BED2 LIGHTS-BEDROOM-A,BEDROOM LIGHT,4F-A'-BED2,13.32,2.0,79.920,6.000,39.960,0.000,0.720,0.200,8.000E-002,1.000,General,0.000,79.920
 Lights Internal Gains Nominal, 4F-A-BED1 LIGHTS-BEDROOM-A,BEDROOM LIGHT,4F-A-BED1,15.12,2.0,90.720,6.000,45.360,0.000,0.720,0.200,8.000E-002,1.000,General,0.000,90.720
 Lights Internal Gains Nominal, 4F-A-BED2 LIGHTS-BEDROOM-A,BEDROOM LIGHT,4F-A-BED2,13.32,2.0,79.920,6.000,39.960,0.000,0.720,0.200,8.000E-002,1.000,General,0.000,79.920
 Lights Internal Gains Nominal, 5F-A'-BED1 LIGHTS-BEDROOM-A,BEDROOM LIGHT,5F-A'-BED1,15.12,2.0,90.720,6.000,45.360,0.000,0.720,0.200,8.000E-002,1.000,General,0.000,90.720
 Lights Internal Gains Nominal, 5F-A'-BED2 LIGHTS-BEDROOM-A,BEDROOM LIGHT,5F-A'-BED2,13.32,2.0,79.920,6.000,39.960,0.000,0.720,0.200,8.000E-002,1.000,General,0.000,79.920
 Lights Internal Gains Nominal, 5F-A-BED1 LIGHTS-BEDROOM-A,BEDROOM LIGHT,5F-A-BED1,15.12,2.0,90.720,6.000,45.360,0.000,0.720,0.200,8.000E-002,1.000,General,0.000,90.720
 Lights Internal Gains Nominal, 5F-A-BED2 LIGHTS-BEDROOM-A,BEDROOM LIGHT,5F-A-BED2,13.32,2.0,79.920,6.000,39.960,0.000,0.720,0.200,8.000E-002,1.000,General,0.000,79.920
 Lights Internal Gains Nominal, 5F-B'-BED1 LIGHTS-BEDROOM-B,BEDROOM LIGHT,5F-B'-BED1,16.97,2.0,101.820,6.000,50.910,0.000,0.720,0.200,8.000E-002,1.000,General,0.000,101.820
 Lights Internal Gains Nominal, 5F-B'-BED2 LIGHTS-BEDROOM-B,BEDROOM LIGHT,5F-B'-BED2,15.27,2.0,91.650,6.000,45.825,0.000,0.720,0.200,8.000E-002,1.000,General,0.000,91.650
 Lights Internal Gains Nominal, 5F-B'-BED3 LIGHTS-BEDROOM-B,BEDROOM LIGHT,5F-B'-BED3,13.32,2.0,79.920,6.000,39.960,0.000,0.720,0.200,8.000E-002,1.000,General,0.000,79.920
 Lights Internal Gains Nominal, 5F-B-BED1 LIGHTS-BEDROOM-B,BEDROOM LIGHT,5F-B-BED1,16.97,2.0,101.820,6.000,50.910,0.000,0.720,0.200,8.000E-002,1.000,General,0.000,101.820
 Lights Internal Gains Nominal, 1F-B'-BED1 LIGHTS-BEDROOM-B,BEDROOM LIGHT,1F-B'-BED1,16.97,2.0,101.820,6.000,50.910,0.000,0.720,0.200,8.000E-002,1.000,General,0.000,101.820
 Lights Internal Gains Nominal, 1F-B'-BED2 LIGHTS-BEDROOM-B,BEDROOM LIGHT,1F-B'-BED2,15.27,2.0,91.650,6.000,45.825,0.000,0.720,0.200,8.000E-002,1.000,General,0.000,91.650
 Lights Internal Gains Nominal, 1F-B'-BED3 LIGHTS-BEDROOM-B,BEDROOM LIGHT,1F-B'-BED3,13.32,2.0,79.920,6.000,39.960,0.000,0.720,0.200,8.000E-002,1.000,General,0.000,79.920
 Lights Internal Gains Nominal, 1F-B-BED1 LIGHTS-BEDROOM-B,BEDROOM LIGHT,1F-B-BED1,16.97,2.0,101.820,6.000,50.910,0.000,0.720,0.200,8.000E-002,1.000,General,0.000,101.820
 Lights Internal Gains Nominal, 1F-B-BED2 LIGHTS-BEDROOM-B,BEDROOM LIGHT,1F-B-BED2,15.28,2.0,91.650,6.000,45.825,0.000,0.720,0.200,8.000E-002,1.000,General,0.000,91.650
 Lights Internal Gains Nominal, 1F-B-BED3 LIGHTS-BEDROOM-B,BEDROOM LIGHT,1F-B-BED3,13.32,2.0,79.920,6.000,39.960,0.000,0.720,0.200,8.000E-002,1.000,General,0.000,79.920
 Lights Internal Gains Nominal, 5F-B-BED2 LIGHTS-BEDROOM-B,BEDROOM LIGHT,5F-B-BED2,15.28,2.0,91.650,6.000,45.825,0.000,0.720,0.200,8.000E-002,1.000,General,0.000,91.650
 Lights Internal Gains Nominal, 5F-B-BED3 LIGHTS-BEDROOM-B,BEDROOM LIGHT,5F-B-BED3,13.32,2.0,79.920,6.000,39.960,0.000,0.720,0.200,8.000E-002,1.000,General,0.000,79.920
 Lights Internal Gains Nominal, 4F-B'-BED1 LIGHTS-BEDROOM-B,BEDROOM LIGHT,4F-B'-BED1,16.97,2.0,101.820,6.000,50.910,0.000,0.720,0.200,8.000E-002,1.000,General,0.000,101.820
 Lights Internal Gains Nominal, 4F-B'-BED2 LIGHTS-BEDROOM-B,BEDROOM LIGHT,4F-B'-BED2,15.27,2.0,91.650,6.000,45.825,0.000,0.720,0.200,8.000E-002,1.000,General,0.000,91.650
 Lights Internal Gains Nominal, 2F-B'-BED1 LIGHTS-BEDROOM-B,BEDROOM LIGHT,2F-B'-BED1,16.97,2.0,101.820,6.000,50.910,0.000,0.720,0.200,8.000E-002,1.000,General,0.000,101.820
 Lights Internal Gains Nominal, 2F-B'-BED2 LIGHTS-BEDROOM-B,BEDROOM LIGHT,2F-B'-BED2,15.27,2.0,91.650,6.000,45.825,0.000,0.720,0.200,8.000E-002,1.000,General,0.000,91.650
 Lights Internal Gains Nominal, 2F-B'-BED3 LIGHTS-BEDROOM-B,BEDROOM LIGHT,2F-B'-BED3,13.32,2.0,79.920,6.000,39.960,0.000,0.720,0.200,8.000E-002,1.000,General,0.000,79.920
 Lights Internal Gains Nominal, 2F-B-BED1 LIGHTS-BEDROOM-B,BEDROOM LIGHT,2F-B-BED1,16.97,2.0,101.820,6.000,50.910,0.000,0.720,0.200,8.000E-002,1.000,General,0.000,101.820
 Lights Internal Gains Nominal, 2F-B-BED2 LIGHTS-BEDROOM-B,BEDROOM LIGHT,2F-B-BED2,15.28,2.0,91.650,6.000,45.825,0.000,0.720,0.200,8.000E-002,1.000,General,0.000,91.650
 Lights Internal Gains Nominal, 2F-B-BED3 LIGHTS-BEDROOM-B,BEDROOM LIGHT,2F-B-BED3,13.32,2.0,79.920,6.000,39.960,0.000,0.720,0.200,8.000E-002,1.000,General,0.000,79.920
 Lights Internal Gains Nominal, 4F-B'-BED3 LIGHTS-BEDROOM-B,BEDROOM LIGHT,4F-B'-BED3,13.32,2.0,79.920,6.000,39.960,0.000,0.720,0.200,8.000E-002,1.000,General,0.000,79.920
 Lights Internal Gains Nominal, 4F-B-BED1 LIGHTS-BEDROOM-B,BEDROOM LIGHT,4F-B-BED1,16.97,2.0,101.820,6.000,50.910,0.000,0.720,0.200,8.000E-002,1.000,General,0.000,101.820
 Lights Internal Gains Nominal, 4F-B-BED2 LIGHTS-BEDROOM-B,BEDROOM LIGHT,4F-B-BED2,15.28,2.0,91.650,6.000,45.825,0.000,0.720,0.200,8.000E-002,1.000,General,0.000,91.650
 Lights Internal Gains Nominal, 4F-B-BED3 LIGHTS-BEDROOM-B,BEDROOM LIGHT,4F-B-BED3,13.32,2.0,79.920,6.000,39.960,0.000,0.720,0.200,8.000E-002,1.000,General,0.000,79.920
 Lights Internal Gains Nominal, 3F-B'-BED1 LIGHTS-BEDROOM-B,BEDROOM LIGHT,3F-B'-BED1,16.97,2.0,101.820,6.000,50.910,0.000,0.720,0.200,8.000E-002,1.000,General,0.000,101.820
 Lights Internal Gains Nominal, 3F-B'-BED2 LIGHTS-BEDROOM-B,BEDROOM LIGHT,3F-B'-BED2,15.27,2.0,91.650,6.000,45.825,0.000,0.720,0.200,8.000E-002,1.000,General,0.000,91.650
 Lights Internal Gains Nominal, 3F-B'-BED3 LIGHTS-BEDROOM-B,BEDROOM LIGHT,3F-B'-BED3,13.32,2.0,79.920,6.000,39.960,0.000,0.720,0.200,8.000E-002,1.000,General,0.000,79.920
 Lights Internal Gains Nominal, 3F-B-BED1 LIGHTS-BEDROOM-B,BEDROOM LIGHT,3F-B-BED1,16.97,2.0,101.820,6.000,50.910,0.000,0.720,0.200,8.000E-002,1.000,General,0.000,101.820
 Lights Internal Gains Nominal, 3F-B-BED2 LIGHTS-BEDROOM-B,BEDROOM LIGHT,3F-B-BED2,15.28,2.0,91.650,6.000,45.825,0.000,0.720,0.200,8.000E-002,1.000,General,0.000,91.650
 Lights Internal Gains Nominal, 3F-B-BED3 LIGHTS-BEDROOM-B,BEDROOM LIGHT,3F-B-BED3,13.32,2.0,79.920,6.000,39.960,0.000,0.720,0.200,8.000E-002,1.000,General,0.000,79.920
 Lights Internal Gains Nominal, 1F-A'-LIVING LIGHTS-LIVINGROOM-A,LIVINGROOM LIGHT,1F-A'-LIVING,34.32,3.0,205.911,6.000,68.637,0.000,0.720,0.200,8.000E-002,1.000,General,0.000,205.911
 Lights Internal Gains Nominal, 1F-A-LIVING LIGHTS-LIVINGROOM-A,LIVINGROOM LIGHT,1F-A-LIVING,34.32,3.0,205.911,6.000,68.637,0.000,0.720,0.200,8.000E-002,1.000,General,0.000,205.911
 Lights Internal Gains Nominal, 5F-A'-LIVING LIGHTS-LIVINGROOM-A,LIVINGROOM LIGHT,5F-A'-LIVING,34.32,3.0,205.911,6.000,68.637,0.000,0.720,0.200,8.000E-002,1.000,General,0.000,205.911
 Lights Internal Gains Nominal, 5F-A-LIVING LIGHTS-LIVINGROOM-A,LIVINGROOM LIGHT,5F-A-LIVING,34.32,3.0,205.911,6.000,68.637,0.000,0.720,0.200,8.000E-002,1.000,General,0.000,205.911
 Lights Internal Gains Nominal, 2F-A'-LIVING LIGHTS-LIVINGROOM-A,LIVINGROOM LIGHT,2F-A'-LIVING,34.32,3.0,205.911,6.000,68.637,0.000,0.720,0.200,8.000E-002,1.000,General,0.000,205.911
 Lights Internal Gains Nominal, 2F-A-LIVING LIGHTS-LIVINGROOM-A,LIVINGROOM LIGHT,2F-A-LIVING,34.32,3.0,205.911,6.000,68.637,0.000,0.720,0.200,8.000E-002,1.000,General,0.000,205.911
 Lights Internal Gains Nominal, 4F-A'-LIVING LIGHTS-LIVINGROOM-A,LIVINGROOM LIGHT,4F-A'-LIVING,34.32,3.0,205.911,6.000,68.637,0.000,0.720,0.200,8.000E-002,1.000,General,0.000,205.911
 Lights Internal Gains Nominal, 4F-A-LIVING LIGHTS-LIVINGROOM-A,LIVINGROOM LIGHT,4F-A-LIVING,34.32,3.0,205.911,6.000,68.637,0.000,0.720,0.200,8.000E-002,1.000,General,0.000,205.911
 Lights Internal Gains Nominal, 3F-A'-LIVING LIGHTS-LIVINGROOM-A,LIVINGROOM LIGHT,3F-A'-LIVING,34.32,3.0,205.911,6.000,68.637,0.000,0.720,0.200,8.000E-002,1.000,General,0.000,205.911
 Lights Internal Gains Nominal, 3F-A-LIVING LIGHTS-LIVINGROOM-A,LIVINGROOM LIGHT,3F-A-LIVING,34.32,3.0,205.911,6.000,68.637,0.000,0.720,0.200,8.000E-002,1.000,General,0.000,205.911
 Lights Internal Gains Nominal, 5F-B'-LIVING LIGHTS-LIVINGROOM-B,LIVINGROOM LIGHT,5F-B'-LIVING,50.11,5.0,300.660,6.000,60.132,0.000,0.720,0.200,8.000E-002,1.000,General,0.000,300.660
 Lights Internal Gains Nominal, 5F-B-LIVING LIGHTS-LIVINGROOM-B,LIVINGROOM LIGHT,5F-B-LIVING,50.11,5.0,300.660,6.000,60.132,0.000,0.720,0.200,8.000E-002,1.000,General,0.000,300.660
 Lights Internal Gains Nominal, 1F-B'-LIVING LIGHTS-LIVINGROOM-B,LIVINGROOM LIGHT,1F-B'-LIVING,50.11,5.0,300.660,6.000,60.132,0.000,0.720,0.200,8.000E-002,1.000,General,0.000,300.660
 Lights Internal Gains Nominal, 1F-B-LIVING LIGHTS-LIVINGROOM-B,LIVINGROOM LIGHT,1F-B-LIVING,50.11,5.0,300.660,6.000,60.132,0.000,0.720,0.200,8.000E-002,1.000,General,0.000,300.660
 Lights Internal Gains Nominal, 4F-B'-LIVING LIGHTS-LIVINGROOM-B,LIVINGROOM LIGHT,4F-B'-LIVING,50.11,5.0,300.660,6.000,60.132,0.000,0.720,0.200,8.000E-002,1.000,General,0.000,300.660
 Lights Internal Gains Nominal, 4F-B-LIVING LIGHTS-LIVINGROOM-B,LIVINGROOM LIGHT,4F-B-LIVING,50.11,5.0,300.660,6.000,60.132,0.000,0.720,0.200,8.000E-002,1.000,General,0.000,300.660
 Lights Internal Gains Nominal, 2F-B'-LIVING LIGHTS-LIVINGROOM-B,LIVINGROOM LIGHT,2F-B'-LIVING,50.11,5.0,300.660,6.000,60.132,0.000,0.720,0.200,8.000E-002,1.000,General,0.000,300.660
 Lights Internal Gains Nominal, 2F-B-LIVING LIGHTS-LIVINGROOM-B,LIVINGROOM LIGHT,2F-B-LIVING,50.11,5.0,300.660,6.000,60.132,0.000,0.720,0.200,8.000E-002,1.000,General,0.000,300.660
 Lights Internal Gains Nominal, 3F-B'-LIVING LIGHTS-LIVINGROOM-B,LIVINGROOM LIGHT,3F-B'-LIVING,50.11,5.0,300.660,6.000,60.132,0.000,0.720,0.200,8.000E-002,1.000,General,0.000,300.660
 Lights Internal Gains Nominal, 3F-B-LIVING LIGHTS-LIVINGROOM-B,LIVINGROOM LIGHT,3F-B-LIVING,50.11,5.0,300.660,6.000,60.132,0.000,0.720,0.200,8.000E-002,1.000,General,0.000,300.660
! <ElectricEquipment Internal Gains Nominal>,Name,Schedule Name,Zone Name,Zone Floor Area {m2},# Zone Occupants,Equipment Level {W},Equipment/Floor Area {W/m2},Equipment per person {W/person},Fraction Latent,Fraction Radiant,Fraction Lost,Fraction Convected,End-Use SubCategory,Nominal Minimum Equipment Level {W},Nominal Maximum Equipment Level {W}
 ElectricEquipment Internal Gains Nominal, 1F-A'-BED1 EQUIPMENT-BEDROOM-A,WORKING/SCHOOLING BEDROOM OCCUPANCY,1F-A'-BED1,15.12,2.0,65.016,4.300,32.508,0.000,0.200,0.000,0.800,General,0.000,65.016
 ElectricEquipment Internal Gains Nominal, 1F-A'-BED2 EQUIPMENT-BEDROOM-A,WORKING/SCHOOLING BEDROOM OCCUPANCY,1F-A'-BED2,13.32,2.0,57.276,4.300,28.638,0.000,0.200,0.000,0.800,General,0.000,57.276
 ElectricEquipment Internal Gains Nominal, 1F-A-BED1 EQUIPMENT-BEDROOM-A,WORKING/SCHOOLING BEDROOM OCCUPANCY,1F-A-BED1,15.12,2.0,65.016,4.300,32.508,0.000,0.200,0.000,0.800,General,0.000,65.016
 ElectricEquipment Internal Gains Nominal, 1F-A-BED2 EQUIPMENT-BEDROOM-A,WORKING/SCHOOLING BEDROOM OCCUPANCY,1F-A-BED2,13.32,2.0,57.276,4.300,28.638,0.000,0.200,0.000,0.800,General,0.000,57.276
 ElectricEquipment Internal Gains Nominal, 2F-A'-BED1 EQUIPMENT-BEDROOM-A,WORKING/SCHOOLING BEDROOM OCCUPANCY,2F-A'-BED1,15.12,2.0,65.016,4.300,32.508,0.000,0.200,0.000,0.800,General,0.000,65.016
 ElectricEquipment Internal Gains Nominal, 2F-A'-BED2 EQUIPMENT-BEDROOM-A,WORKING/SCHOOLING BEDROOM OCCUPANCY,2F-A'-BED2,13.32,2.0,57.276,4.300,28.638,0.000,0.200,0.000,0.800,General,0.000,57.276
 ElectricEquipment Internal Gains Nominal, 2F-A-BED1 EQUIPMENT-BEDROOM-A,WORKING/SCHOOLING BEDROOM OCCUPANCY,2F-A-BED1,15.12,2.0,65.016,4.300,32.508,0.000,0.200,0.000,0.800,General,0.000,65.016
 ElectricEquipment Internal Gains Nominal, 2F-A-BED2 EQUIPMENT-BEDROOM-A,WORKING/SCHOOLING BEDROOM OCCUPANCY,2F-A-BED2,13.32,2.0,57.276,4.300,28.638,0.000,0.200,0.000,0.800,General,0.000,57.276
 ElectricEquipment Internal Gains Nominal, 3F-A'-BED1 EQUIPMENT-BEDROOM-A,WORKING/SCHOOLING BEDROOM OCCUPANCY,3F-A'-BED1,15.12,2.0,65.016,4.300,32.508,0.000,0.200,0.000,0.800,General,0.000,65.016
[...]
 ZoneVentilation Airflow Stats Nominal, VENTILATION-WIND8,Constant-0.0,1F-B'-BED2,15.27,2.0,0.000,0.000,0.000,0.000,Natural,0.000,0.0,0.000,0.000,0.000,0.000,-100.00,100.00,-100.00,-100.00,100.00,40.00
 ZoneVentilation Airflow Stats Nominal, VENTILATION-WIND9,Constant-0.0,1F-B'-BED3,13.32,2.0,0.000,0.000,0.000,0.000,Natural,0.000,0.0,0.000,0.000,0.000,0.000,-100.00,100.00,-100.00,-100.00,100.00,40.00
 ZoneVentilation Airflow Stats Nominal, VENTILATION-WIND10,Constant-0.0,1F-B'-LIVING,50.11,5.0,0.000,0.000,0.000,0.000,Natural,0.000,0.0,0.000,0.000,0.000,0.000,-100.00,100.00,-100.00,-100.00,100.00,40.00
 ZoneVentilation Airflow Stats Nominal, VENTILATION-WIND11,Constant-0.0,1F-B-BED1,16.97,2.0,0.000,0.000,0.000,0.000,Natural,0.000,0.0,0.000,0.000,0.000,0.000,-100.00,100.00,-100.00,-100.00,100.00,40.00
 ZoneVentilation Airflow Stats Nominal, VENTILATION-WIND12,Constant-0.0,1F-B-BED2,15.28,2.0,0.000,0.000,0.000,0.000,Natural,0.000,0.0,0.000,0.000,0.000,0.000,-100.00,100.00,-100.00,-100.00,100.00,40.00
 ZoneVentilation Airflow Stats Nominal, VENTILATION-WIND13,Constant-0.0,1F-B-BED3,13.32,2.0,0.000,0.000,0.000,0.000,Natural,0.000,0.0,0.000,0.000,0.000,0.000,-100.00,100.00,-100.00,-100.00,100.00,40.00
 ZoneVentilation Airflow Stats Nominal, VENTILATION-WIND14,Constant-0.0,1F-B-LIVING,50.11,5.0,0.000,0.000,0.000,0.000,Natural,0.000,0.0,0.000,0.000,0.000,0.000,-100.00,100.00,-100.00,-100.00,100.00,40.00
 ZoneVentilation Airflow Stats Nominal, VENTILATION-WIND15,Constant-0.0,2F-A'-BED1,15.12,2.0,0.000,0.000,0.000,0.000,Natural,0.000,0.0,0.000,0.000,0.000,0.000,-100.00,100.00,-100.00,-100.00,100.00,40.00
 ZoneVentilation Airflow Stats Nominal, VENTILATION-WIND16,Constant-0.0,2F-A'-BED2,13.32,2.0,0.000,0.000,0.000,0.000,Natural,0.000,0.0,0.000,0.000,0.000,0.000,-100.00,100.00,-100.00,-100.00,100.00,40.00
 ZoneVentilation Airflow Stats Nominal, VENTILATION-WIND17,Constant-0.0,2F-A'-LIVING,34.32,3.0,0.000,0.000,0.000,0.000,Natural,0.000,0.0,0.000,0.000,0.000,0.000,-100.00,100.00,-100.00,-100.00,100.00,40.00
 ZoneVentilation Airflow Stats Nominal, VENTILATION-WIND18,Constant-0.0,2F-A-BED1,15.12,2.0,0.000,0.000,0.000,0.000,Natural,0.000,0.0,0.000,0.000,0.000,0.000,-100.00,100.00,-100.00,-100.00,100.00,40.00
 ZoneVentilation Airflow Stats Nominal, VENTILATION-WIND19,Constant-0.0,2F-A-BED2,13.32,2.0,0.000,0.000,0.000,0.000,Natural,0.000,0.0,0.000,0.000,0.000,0.000,-100.00,100.00,-100.00,-100.00,100.00,40.00
 ZoneVentilation Airflow Stats Nominal, VENTILATION-WIND20,Constant-0.0,2F-A-LIVING,34.32,3.0,0.000,0.000,0.000,0.000,Natural,0.000,0.0,0.000,0.000,0.000,0.000,-100.00,100.00,-100.00,-100.00,100.00,40.00
 ZoneVentilation Airflow Stats Nominal, VENTILATION-WIND21,Constant-0.0,2F-B'-BED1,16.97,2.0,0.000,0.000,0.000,0.000,Natural,0.000,0.0,0.000,0.000,0.000,0.000,-100.00,100.00,-100.00,-100.00,100.00,40.00
 ZoneVentilation Airflow Stats Nominal, VENTILATION-WIND22,Constant-0.0,2F-B'-BED2,15.27,2.0,0.000,0.000,0.000,0.000,Natural,0.000,0.0,0.000,0.000,0.000,0.000,-100.00,100.00,-100.00,-100.00,100.00,40.00
 ZoneVentilation Airflow Stats Nominal, VENTILATION-WIND23,Constant-0.0,2F-B'-BED3,13.32,2.0,0.000,0.000,0.000,0.000,Natural,0.000,0.0,0.000,0.000,0.000,0.000,-100.00,100.00,-100.00,-100.00,100.00,40.00
 ZoneVentilation Airflow Stats Nominal, VENTILATION-WIND24,Constant-0.0,2F-B'-LIVING,50.11,5.0,0.000,0.000,0.000,0.000,Natural,0.000,0.0,0.000,0.000,0.000,0.000,-100.00,100.00,-100.00,-100.00,100.00,40.00
 ZoneVentilation Airflow Stats Nominal, VENTILATION-WIND25,Constant-0.0,2F-B-BED1,16.97,2.0,0.000,0.000,0.000,0.000,Natural,0.000,0.0,0.000,0.000,0.000,0.000,-100.00,100.00,-100.00,-100.00,100.00,40.00
 ZoneVentilation Airflow Stats Nominal, VENTILATION-WIND26,Constant-0.0,2F-B-BED2,15.28,2.0,0.000,0.000,0.000,0.000,Natural,0.000,0.0,0.000,0.000,0.000,0.000,-100.00,100.00,-100.00,-100.00,100.00,40.00
 ZoneVentilation Airflow Stats Nominal, VENTILATION-WIND27,Constant-0.0,2F-B-BED3,13.32,2.0,0.000,0.000,0.000,0.000,Natural,0.000,0.0,0.000,0.000,0.000,0.000,-100.00,100.00,-100.00,-100.00,100.00,40.00
 ZoneVentilation Airflow Stats Nominal, VENTILATION-WIND28,Constant-0.0,2F-B-LIVING,50.11,5.0,0.000,0.000,0.000,0.000,Natural,0.000,0.0,0.000,0.000,0.000,0.000,-100.00,100.00,-100.00,-100.00,100.00,40.00
 ZoneVentilation Airflow Stats Nominal, VENTILATION-WIND29,Constant-0.0,3F-A'-BED1,15.12,2.0,0.000,0.000,0.000,0.000,Natural,0.000,0.0,0.000,0.000,0.000,0.000,-100.00,100.00,-100.00,-100.00,100.00,40.00
 ZoneVentilation Airflow Stats Nominal, VENTILATION-WIND30,Constant-0.0,3F-A'-BED2,13.32,2.0,0.000,0.000,0.000,0.000,Natural,0.000,0.0,0.000,0.000,0.000,0.000,-100.00,100.00,-100.00,-100.00,100.00,40.00
 ZoneVentilation Airflow Stats Nominal, VENTILATION-WIND31,Constant-0.0,3F-A'-LIVING,34.32,3.0,0.000,0.000,0.000,0.000,Natural,0.000,0.0,0.000,0.000,0.000,0.000,-100.00,100.00,-100.00,-100.00,100.00,40.00
 ZoneVentilation Airflow Stats Nominal, VENTILATION-WIND32,Constant-0.0,3F-A-BED1,15.12,2.0,0.000,0.000,0.000,0.000,Natural,0.000,0.0,0.000,0.000,0.000,0.000,-100.00,100.00,-100.00,-100.00,100.00,40.00
 ZoneVentilation Airflow Stats Nominal, VENTILATION-WIND33,Constant-0.0,3F-A-BED2,13.32,2.0,0.000,0.000,0.000,0.000,Natural,0.000,0.0,0.000,0.000,0.000,0.000,-100.00,100.00,-100.00,-100.00,100.00,40.00
 ZoneVentilation Airflow Stats Nominal, VENTILATION-WIND34,Constant-0.0,3F-A-LIVING,34.32,3.0,0.000,0.000,0.000,0.000,Natural,0.000,0.0,0.000,0.000,0.000,0.000,-100.00,100.00,-100.00,-100.00,100.00,40.00
 ZoneVentilation Airflow Stats Nominal, VENTILATION-WIND35,Constant-0.0,3F-B'-BED1,16.97,2.0,0.000,0.000,0.000,0.000,Natural,0.000,0.0,0.000,0.000,0.000,0.000,-100.00,100.00,-100.00,-100.00,100.00,40.00
 ZoneVentilation Airflow Stats Nominal, VENTILATION-WIND36,Constant-0.0,3F-B'-BED2,15.27,2.0,0.000,0.000,0.000,0.000,Natural,0.000,0.0,0.000,0.000,0.000,0.000,-100.00,100.00,-100.00,-100.00,100.00,40.00
 ZoneVentilation Airflow Stats Nominal, VENTILATION-WIND37,Constant-0.0,3F-B'-BED3,13.32,2.0,0.000,0.000,0.000,0.000,Natural,0.000,0.0,0.000,0.000,0.000,0.000,-100.00,100.00,-100.00,-100.00,100.00,40.00
 ZoneVentilation Airflow Stats Nominal, VENTILATION-WIND38,Constant-0.0,3F-B'-LIVING,50.11,5.0,0.000,0.000,0.000,0.000,Natural,0.000,0.0,0.000,0.000,0.000,0.000,-100.00,100.00,-100.00,-100.00,100.00,40.00
 ZoneVentilation Airflow Stats Nominal, VENTILATION-WIND39,Constant-0.0,3F-B-BED1,16.97,2.0,0.000,0.000,0.000,0.000,Natural,0.000,0.0,0.000,0.000,0.000,0.000,-100.00,100.00,-100.00,-100.00,100.00,40.00
 ZoneVentilation Airflow Stats Nominal, VENTILATION-WIND40,Constant-0.0,3F-B-BED2,15.28,2.0,0.000,0.000,0.000,0.000,Natural,0.000,0.0,0.000,0.000,0.000,0.000,-100.00,100.00,-100.00,-100.00,100.00,40.00
 ZoneVentilation Airflow Stats Nominal, VENTILATION-WIND41,Constant-0.0,3F-B-BED3,13.32,2.0,0.000,0.000,0.000,0.000,Natural,0.000,0.0,0.000,0.000,0.000,0.000,-100.00,100.00,-100.00,-100.00,100.00,40.00
 ZoneVentilation Airflow Stats Nominal, VENTILATION-WIND42,Constant-0.0,3F-B-LIVING,50.11,5.0,0.000,0.000,0.000,0.000,Natural,0.000,0.0,0.000,0.000,0.000,0.000,-100.00,100.00,-100.00,-100.00,100.00,40.00
 ZoneVentilation Airflow Stats Nominal, VENTILATION-WIND43,Constant-0.0,4F-A'-BED1,15.12,2.0,0.000,0.000,0.000,0.000,Natural,0.000,0.0,0.000,0.000,0.000,0.000,-100.00,100.00,-100.00,-100.00,100.00,40.00
 ZoneVentilation Airflow Stats Nominal, VENTILATION-WIND44,Constant-0.0,4F-A'-BED2,13.32,2.0,0.000,0.000,0.000,0.000,Natural,0.000,0.0,0.000,0.000,0.000,0.000,-100.00,100.00,-100.00,-100.00,100.00,40.00
 ZoneVentilation Airflow Stats Nominal, VENTILATION-WIND45,Constant-0.0,4F-A'-LIVING,34.32,3.0,0.000,0.000,0.000,0.000,Natural,0.000,0.0,0.000,0.000,0.000,0.000,-100.00,100.00,-100.00,-100.00,100.00,40.00
 ZoneVentilation Airflow Stats Nominal, VENTILATION-WIND46,Constant-0.0,4F-A-BED1,15.12,2.0,0.000,0.000,0.000,0.000,Natural,0.000,0.0,0.000,0.000,0.000,0.000,-100.00,100.00,-100.00,-100.00,100.00,40.00
 ZoneVentilation Airflow Stats Nominal, VENTILATION-WIND47,Constant-0.0,4F-A-BED2,13.32,2.0,0.000,0.000,0.000,0.000,Natural,0.000,0.0,0.000,0.000,0.000,0.000,-100.00,100.00,-100.00,-100.00,100.00,40.00
 ZoneVentilation Airflow Stats Nominal, VENTILATION-WIND48,Constant-0.0,4F-A-LIVING,34.32,3.0,0.000,0.000,0.000,0.000,Natural,0.000,0.0,0.000,0.000,0.000,0.000,-100.00,100.00,-100.00,-100.00,100.00,40.00
 ZoneVentilation Airflow Stats Nominal, VENTILATION-WIND49,Constant-0.0,4F-B'-BED1,16.97,2.0,0.000,0.000,0.000,0.000,Natural,0.000,0.0,0.000,0.000,0.000,0.000,-100.00,100.00,-100.00,-100.00,100.00,40.00
 ZoneVentilation Airflow Stats Nominal, VENTILATION-WIND50,Constant-0.0,4F-B'-BED2,15.27,2.0,0.000,0.000,0.000,0.000,Natural,0.000,0.0,0.000,0.000,0.000,0.000,-100.00,100.00,-100.00,-100.00,100.00,40.00
 ZoneVentilation Airflow Stats Nominal, VENTILATION-WIND51,Constant-0.0,4F-B'-BED3,13.32,2.0,0.000,0.000,0.000,0.000,Natural,0.000,0.0,0.000,0.000,0.000,0.000,-100.00,100.00,-100.00,-100.00,100.00,40.00
 ZoneVentilation Airflow Stats Nominal, VENTILATION-WIND52,Constant-0.0,4F-B'-LIVING,50.11,5.0,0.000,0.000,0.000,0.000,Natural,0.000,0.0,0.000,0.000,0.000,0.000,-100.00,100.00,-100.00,-100.00,100.00,40.00
 ZoneVentilation Airflow Stats Nominal, VENTILATION-WIND53,Constant-0.0,4F-B-BED1,16.97,2.0,0.000,0.000,0.000,0.000,Natural,0.000,0.0,0.000,0.000,0.000,0.000,-100.00,100.00,-100.00,-100.00,100.00,40.00
 ZoneVentilation Airflow Stats Nominal, VENTILATION-WIND54,Constant-0.0,4F-B-BED2,15.28,2.0,0.000,0.000,0.000,0.000,Natural,0.000,0.0,0.000,0.000,0.000,0.000,-100.00,100.00,-100.00,-100.00,100.00,40.00
 ZoneVentilation Airflow Stats Nominal, VENTILATION-WIND55,Constant-0.0,4F-B-BED3,13.32,2.0,0.000,0.000,0.000,0.000,Natural,0.000,0.0,0.000,0.000,0.000,0.000,-100.00,100.00,-100.00,-100.00,100.00,40.00
 ZoneVentilation Airflow Stats Nominal, VENTILATION-WIND56,Constant-0.0,4F-B-LIVING,50.11,5.0,0.000,0.000,0.000,0.000,Natural,0.000,0.0,0.000,0.000,0.000,0.000,-100.00,100.00,-100.00,-100.00,100.00,40.00
 ZoneVentilation Airflow Stats Nominal, VENTILATION-WIND57,Constant-0.0,5F-A'-BED1,15.12,2.0,0.000,0.000,0.000,0.000,Natural,0.000,0.0,0.000,0.000,0.000,0.000,-100.00,100.00,-100.00,-100.00,100.00,40.00
 ZoneVentilation Airflow Stats Nominal, VENTILATION-WIND58,Constant-0.0,5F-A'-BED2,13.32,2.0,0.000,0.000,0.000,0.000,Natural,0.000,0.0,0.000,0.000,0.000,0.000,-100.00,100.00,-100.00,-100.00,100.00,40.00
 ZoneVentilation Airflow Stats Nominal, VENTILATION-WIND59,Constant-0.0,5F-A'-LIVING,34.32,3.0,0.000,0.000,0.000,0.000,Natural,0.000,0.0,0.000,0.000,0.000,0.000,-100.00,100.00,-100.00,-100.00,100.00,40.00
 ZoneVentilation Airflow Stats Nominal, VENTILATION-WIND60,Constant-0.0,5F-A-BED1,15.12,2.0,0.000,0.000,0.000,0.000,Natural,0.000,0.0,0.000,0.000,0.000,0.000,-100.00,100.00,-100.00,-100.00,100.00,40.00
 ZoneVentilation Airflow Stats Nominal, VENTILATION-WIND61,Constant-0.0,5F-A-BED2,13.32,2.0,0.000,0.000,0.000,0.000,Natural,0.000,0.0,0.000,0.000,0.000,0.000,-100.00,100.00,-100.00,-100.00,100.00,40.00
 ZoneVentilation Airflow Stats Nominal, VENTILATION-WIND62,Constant-0.0,5F-A-LIVING,34.32,3.0,0.000,0.000,0.000,0.000,Natural,0.000,0.0,0.000,0.000,0.000,0.000,-100.00,100.00,-100.00,-100.00,100.00,40.00
 ZoneVentilation Airflow Stats Nominal, VENTILATION-WIND63,Constant-0.0,5F-B'-BED1,16.97,2.0,0.000,0.000,0.000,0.000,Natural,0.000,0.0,0.000,0.000,0.000,0.000,-100.00,100.00,-100.00,-100.00,100.00,40.00
 ZoneVentilation Airflow Stats Nominal, VENTILATION-WIND64,Constant-0.0,5F-B'-BED2,15.27,2.0,0.000,0.000,0.000,0.000,Natural,0.000,0.0,0.000,0.000,0.000,0.000,-100.00,100.00,-100.00,-100.00,100.00,40.00
 ZoneVentilation Airflow Stats Nominal, VENTILATION-WIND65,Constant-0.0,5F-B'-BED3,13.32,2.0,0.000,0.000,0.000,0.000,Natural,0.000,0.0,0.000,0.000,0.000,0.000,-100.00,100.00,-100.00,-100.00,100.00,40.00
 ZoneVentilation Airflow Stats Nominal, VENTILATION-WIND66,Constant-0.0,5F-B'-LIVING,50.11,5.0,0.000,0.000,0.000,0.000,Natural,0.000,0.0,0.000,0.000,0.000,0.000,-100.00,100.00,-100.00,-100.00,100.00,40.00
 ZoneVentilation Airflow Stats Nominal, VENTILATION-WIND67,Constant-0.0,5F-B-BED1,16.97,2.0,0.000,0.000,0.000,0.000,Natural,0.000,0.0,0.000,0.000,0.000,0.000,-100.00,100.00,-100.00,-100.00,100.00,40.00
 ZoneVentilation Airflow Stats Nominal, VENTILATION-WIND68,Constant-0.0,5F-B-BED2,15.28,2.0,0.000,0.000,0.000,0.000,Natural,0.000,0.0,0.000,0.000,0.000,0.000,-100.00,100.00,-100.00,-100.00,100.00,40.00
 ZoneVentilation Airflow Stats Nominal, VENTILATION-WIND69,Constant-0.0,5F-B-BED3,13.32,2.0,0.000,0.000,0.000,0.000,Natural,0.000,0.0,0.000,0.000,0.000,0.000,-100.00,100.00,-100.00,-100.00,100.00,40.00
 ZoneVentilation Airflow Stats Nominal, VENTILATION-WIND70,Constant-0.0,5F-B-LIVING,50.11,5.0,0.000,0.000,0.000,0.000,Natural,0.000,0.0,0.000,0.000,0.000,0.000,-100.00,100.00,-100.00,-100.00,100.00,40.00
! <AirFlow Model>, Simple
 AirFlow Model, Simple
! <RoomAir Model>, Zone Name, Mixing/Mundt/UCSDDV/UCSDCV/UCSDUFI/UCSDUFE/User Defined
RoomAir Model,1F-A'-BED1,Mixing/Well-Stirred
RoomAir Model,1F-A'-BED2,Mixing/Well-Stirred
RoomAir Model,1F-A'-KITHEN,Mixing/Well-Stirred
RoomAir Model,1F-A'-LIVING,Mixing/Well-Stirred
RoomAir Model,1F-A'-WASH,Mixing/Well-Stirred
RoomAir Model,1F-A-BED1,Mixing/Well-Stirred
RoomAir Model,1F-A-BED2,Mixing/Well-Stirred
RoomAir Model,1F-A-KITHEN,Mixing/Well-Stirred
RoomAir Model,1F-A-LIVING,Mixing/Well-Stirred
RoomAir Model,1F-A-WASH,Mixing/Well-Stirred
RoomAir Model,1F-B'-BED1,Mixing/Well-Stirred
RoomAir Model,1F-B'-BED2,Mixing/Well-Stirred
RoomAir Model,1F-B'-BED3,Mixing/Well-Stirred
RoomAir Model,1F-B'-KITCHEN,Mixing/Well-Stirred
RoomAir Model,1F-B'-LIVING,Mixing/Well-Stirred
RoomAir Model,1F-B'-WASH1,Mixing/Well-Stirred
RoomAir Model,1F-B'-WASH2,Mixing/Well-Stirred
RoomAir Model,1F-B-BED1,Mixing/Well-Stirred
RoomAir Model,1F-B-BED2,Mixing/Well-Stirred
RoomAir Model,1F-B-BED3,Mixing/Well-Stirred
RoomAir Model,1F-B-KITCHEN,Mixing/Well-Stirred
RoomAir Model,1F-B-LIVING,Mixing/Well-Stirred
RoomAir Model,1F-B-WASH1,Mixing/Well-Stirred
RoomAir Model,1F-B-WASH2,Mixing/Well-Stirred
RoomAir Model,1F-STAIRS-LEFT,Mixing/Well-Stirred
RoomAir Model,1F-STAIRS-RIGHT,Mixing/Well-Stirred
RoomAir Model,2F-A'-BED1,Mixing/Well-Stirred
RoomAir Model,2F-A'-BED2,Mixing/Well-Stirred
RoomAir Model,2F-A'-KITHEN,Mixing/Well-Stirred
RoomAir Model,2F-A'-LIVING,Mixing/Well-Stirred
RoomAir Model,2F-A'-WASH,Mixing/Well-Stirred
RoomAir Model,2F-A-BED1,Mixing/Well-Stirred
RoomAir Model,2F-A-BED2,Mixing/Well-Stirred
RoomAir Model,2F-A-KITHEN,Mixing/Well-Stirred
RoomAir Model,2F-A-LIVING,Mixing/Well-Stirred
RoomAir Model,2F-A-WASH,Mixing/Well-Stirred
RoomAir Model,2F-B'-BED1,Mixing/Well-Stirred
RoomAir Model,2F-B'-BED2,Mixing/Well-Stirred
RoomAir Model,2F-B'-BED3,Mixing/Well-Stirred
RoomAir Model,2F-B'-KITCHEN,Mixing/Well-Stirred
RoomAir Model,2F-B'-LIVING,Mixing/Well-Stirred
RoomAir Model,2F-B'-WASH1,Mixing/Well-Stirred
RoomAir Model,2F-B'-WASH2,Mixing/Well-Stirred
RoomAir Model,2F-B-BED1,Mixing/Well-Stirred
RoomAir Model,2F-B-BED2,Mixing/Well-Stirred
RoomAir Model,2F-B-BED3,Mixing/Well-Stirred
RoomAir Model,2F-B-KITCHEN,Mixing/Well-Stirred
RoomAir Model,2F-B-LIVING,Mixing/Well-Stirred
RoomAir Model,2F-B-WASH1,Mixing/Well-Stirred
RoomAir Model,2F-B-WASH2,Mixing/Well-Stirred
RoomAir Model,2F-STAIRS-LEFT,Mixing/Well-Stirred
RoomAir Model,2F-STAIRS-RIGHT,Mixing/Well-Stirred
RoomAir Model,3F-A'-BED1,Mixing/Well-Stirred
RoomAir Model,3F-A'-BED2,Mixing/Well-Stirred
RoomAir Model,3F-A'-KITHEN,Mixing/Well-Stirred
RoomAir Model,3F-A'-LIVING,Mixing/Well-Stirred
RoomAir Model,3F-A'-WASH,Mixing/Well-Stirred
RoomAir Model,3F-A-BED1,Mixing/Well-Stirred
RoomAir Model,3F-A-BED2,Mixing/Well-Stirred
RoomAir Model,3F-A-KITHEN,Mixing/Well-Stirred
RoomAir Model,3F-A-LIVING,Mixing/Well-Stirred
RoomAir Model,3F-A-WASH,Mixing/Well-Stirred
RoomAir Model,3F-B'-BED1,Mixing/Well-Stirred
RoomAir Model,3F-B'-BED2,Mixing/Well-Stirred
RoomAir Model,3F-B'-BED3,Mixing/Well-Stirred
RoomAir Model,3F-B'-KITCHEN,Mixing/Well-Stirred
RoomAir Model,3F-B'-LIVING,Mixing/Well-Stirred
RoomAir Model,3F-B'-WASH1,Mixing/Well-Stirred
RoomAir Model,3F-B'-WASH2,Mixing/Well-Stirred
RoomAir Model,3F-B-BED1,Mixing/Well-Stirred
RoomAir Model,3F-B-BED2,Mixing/Well-Stirred
RoomAir Model,3F-B-BED3,Mixing/Well-Stirred
RoomAir Model,3F-B-KITCHEN,Mixing/Well-Stirred
RoomAir Model,3F-B-LIVING,Mixing/Well-Stirred
RoomAir Model,3F-B-WASH1,Mixing/Well-Stirred
RoomAir Model,3F-B-WASH2,Mixing/Well-Stirred
RoomAir Model,3F-STAIRS-LEFT,Mixing/Well-Stirred
RoomAir Model,3F-STAIRS-RIGHT,Mixing/Well-Stirred
RoomAir Model,4F-A'-BED1,Mixing/Well-Stirred
RoomAir Model,4F-A'-BED2,Mixing/Well-Stirred
RoomAir Model,4F-A'-KITHEN,Mixing/Well-Stirred
RoomAir Model,4F-A'-LIVING,Mixing/Well-Stirred
RoomAir Model,4F-A'-WASH,Mixing/Well-Stirred
RoomAir Model,4F-A-BED1,Mixing/Well-Stirred
RoomAir Model,4F-A-BED2,Mixing/Well-Stirred
RoomAir Model,4F-A-KITHEN,Mixing/Well-Stirred
RoomAir Model,4F-A-LIVING,Mixing/Well-Stirred
RoomAir Model,4F-A-WASH,Mixing/Well-Stirred
RoomAir Model,4F-B'-BED1,Mixing/Well-Stirred
RoomAir Model,4F-B'-BED2,Mixing/Well-Stirred
RoomAir Model,4F-B'-BED3,Mixing/Well-Stirred
RoomAir Model,4F-B'-KITCHEN,Mixing/Well-Stirred
RoomAir Model,4F-B'-LIVING,Mixing/Well-Stirred
RoomAir Model,4F-B'-WASH1,Mixing/Well-Stirred
RoomAir Model,4F-B'-WASH2,Mixing/Well-Stirred
RoomAir Model,4F-B-BED1,Mixing/Well-Stirred
RoomAir Model,4F-B-BED2,Mixing/Well-Stirred
RoomAir Model,4F-B-BED3,Mixing/Well-Stirred
RoomAir Model,4F-B-KITCHEN,Mixing/Well-Stirred
RoomAir Model,4F-B-LIVING,Mixing/Well-Stirred
RoomAir Model,4F-B-WASH1,Mixing/Well-Stirred
RoomAir Model,4F-B-WASH2,Mixing/Well-Stirred
RoomAir Model,4F-STAIRS-LEFT,Mixing/Well-Stirred
RoomAir Model,4F-STAIRS-RIGHT,Mixing/Well-Stirred
RoomAir Model,5F-A'-BED1,Mixing/Well-Stirred
RoomAir Model,5F-A'-BED2,Mixing/Well-Stirred
RoomAir Model,5F-A'-KITHEN,Mixing/Well-Stirred
RoomAir Model,5F-A'-LIVING,Mixing/Well-Stirred
RoomAir Model,5F-A'-WASH,Mixing/Well-Stirred
RoomAir Model,5F-A-BED1,Mixing/Well-Stirred
RoomAir Model,5F-A-BED2,Mixing/Well-Stirred
RoomAir Model,5F-A-KITHEN,Mixing/Well-Stirred
RoomAir Model,5F-A-LIVING,Mixing/Well-Stirred
RoomAir Model,5F-A-WASH,Mixing/Well-Stirred
RoomAir Model,5F-B'-BED1,Mixing/Well-Stirred
RoomAir Model,5F-B'-BED2,Mixing/Well-Stirred
RoomAir Model,5F-B'-BED3,Mixing/Well-Stirred
RoomAir Model,5F-B'-KITCHEN,Mixing/Well-Stirred
RoomAir Model,5F-B'-LIVING,Mixing/Well-Stirred
RoomAir Model,5F-B'-WASH1,Mixing/Well-Stirred
RoomAir Model,5F-B'-WASH2,Mixing/Well-Stirred
RoomAir Model,5F-B-BED1,Mixing/Well-Stirred
RoomAir Model,5F-B-BED2,Mixing/Well-Stirred
RoomAir Model,5F-B-BED3,Mixing/Well-Stirred
RoomAir Model,5F-B-KITCHEN,Mixing/Well-Stirred
RoomAir Model,5F-B-LIVING,Mixing/Well-Stirred
RoomAir Model,5F-B-WASH1,Mixing/Well-Stirred
RoomAir Model,5F-B-WASH2,Mixing/Well-Stirred
RoomAir Model,5F-STAIRS-LEFT,Mixing/Well-Stirred
RoomAir Model,5F-STAIRS-RIGHT,Mixing/Well-Stirred
! <AirflowNetwork Model:Control>, No Multizone or Distribution/Multizone with Distribution/Multizone without Distribution/Multizone with Distribution only during Fan Operation
AirflowNetwork Model:Control,NoMultizoneOrDistribution
! <Zone Volume Capacitance Multiplier>, Sensible Heat Capacity Multiplier, Moisture Capacity Multiplier, Carbon Dioxide Capacity Multiplier, Generic Contaminant Capacity Multiplier
Zone Volume Capacitance Multiplier,   1.000 ,   1.000,   1.000,   1.000
! <Environment>,Environment Name,Environment Type, Start Date, End Date, Start DayOfWeek, Duration {#days}, Source:Start DayOfWeek,  Use Daylight Saving, Use Holidays, Apply Weekend Holiday Rule,  Use Rain Values, Use Snow Values
! <Environment:Special Days>, Special Day Name, Special Day Type, Source, Start Date, Duration {#days}
! <Environment:Daylight Saving>, Daylight Saving Indicator, Source, Start Date, End Date
! <Environment:WarmupDays>, NumberofWarmupDays
Environment,ANNUAL,WeatherFileRunPeriod,01/01,12/31,Sunday,365,UseWeatherFile,No,No,No,Yes,Yes
Environment:Daylight Saving,No,RunPeriod Object
