Program Version,EnergyPlus, Version 8.7.0-78a111df4a, YMD=2019.05.28 05:48
! <Version>, Version ID
 Version, 8.4
! <Timesteps per Hour>, #TimeSteps, Minutes per TimeStep {minutes}
 Timesteps per Hour,  4, 15
! <System Convergence Limits>, Minimum System TimeStep {minutes}, Max HVAC Iterations, Minimum Plant Iterations, Maximum Plant Iterations
 System Convergence Limits, 1, 20, 2, 8
! <Simulation Control>, Do Zone Sizing, Do System Sizing, Do Plant Sizing, Do Design Days, Do Weather Simulation, Do HVAC Sizing Simulation
 Simulation Control, No, No, No, Yes, Yes, No
! <Output Reporting Tolerances>, Tolerance for Time Heating Setpoint Not Met, Tolerance for Zone Cooling Setpoint Not Met Time
 Output Reporting Tolerances, 0.200, 0.200, 
! <Site:GroundTemperature:BuildingSurface>,Jan{C},Feb{C},Mar{C},Apr{C},May{C},Jun{C},Jul{C},Aug{C},Sep{C},Oct{C},Nov{C},Dec{C}
 Site:GroundTemperature:BuildingSurface,  17.73,  17.58,  14.99,  15.72,  19.24,  24.78,  25.36,  25.42,  25.45,  23.67,  19.98,  19.57
! <Site:GroundTemperature:FCfactorMethod>,Jan{C},Feb{C},Mar{C},Apr{C},May{C},Jun{C},Jul{C},Aug{C},Sep{C},Oct{C},Nov{C},Dec{C}
 Site:GroundTemperature:FCfactorMethod,  13.31,  10.23,   9.39,  10.12,  14.28,  18.95,  23.34,  26.51,  27.44,  25.95,  22.35,  17.82
! <Site:GroundTemperature:Shallow>,Jan{C},Feb{C},Mar{C},Apr{C},May{C},Jun{C},Jul{C},Aug{C},Sep{C},Oct{C},Nov{C},Dec{C}
 Site:GroundTemperature:Shallow,  13.00,  13.00,  13.00,  13.00,  13.00,  13.00,  13.00,  13.00,  13.00,  13.00,  13.00,  13.00
! <Site:GroundTemperature:Deep>,Jan{C},Feb{C},Mar{C},Apr{C},May{C},Jun{C},Jul{C},Aug{C},Sep{C},Oct{C},Nov{C},Dec{C}
 Site:GroundTemperature:Deep,  16.00,  16.00,  16.00,  16.00,  16.00,  16.00,  16.00,  16.00,  16.00,  16.00,  16.00,  16.00
! <Site:GroundReflectance>,Jan{dimensionless},Feb{dimensionless},Mar{dimensionless},Apr{dimensionless},May{dimensionless},Jun{dimensionless},Jul{dimensionless},Aug{dimensionless},Sep{dimensionless},Oct{dimensionless},Nov{dimensionless},Dec{dimensionless}
 Site:GroundReflectance,  0.20,  0.20,  0.20,  0.20,  0.20,  0.20,  0.20,  0.20,  0.20,  0.20,  0.20,  0.20
! <Site:GroundReflectance:SnowModifier>, Normal, Daylighting {dimensionless}
 Site:GroundReflectance:SnowModifier,   1.000,   1.000
! <Site:GroundReflectance:Snow>,Jan{dimensionless},Feb{dimensionless},Mar{dimensionless},Apr{dimensionless},May{dimensionless},Jun{dimensionless},Jul{dimensionless},Aug{dimensionless},Sep{dimensionless},Oct{dimensionless},Nov{dimensionless},Dec{dimensionless}
 Site:GroundReflectance:Snow,  0.20,  0.20,  0.20,  0.20,  0.20,  0.20,  0.20,  0.20,  0.20,  0.20,  0.20,  0.20
! <Site:GroundReflectance:Snow:Daylighting>,Jan{dimensionless},Feb{dimensionless},Mar{dimensionless},Apr{dimensionless},May{dimensionless},Jun{dimensionless},Jul{dimensionless},Aug{dimensionless},Sep{dimensionless},Oct{dimensionless},Nov{dimensionless},Dec{dimensionless}
 Site:GroundReflectance:Snow:Daylighting,  0.20,  0.20,  0.20,  0.20,  0.20,  0.20,  0.20,  0.20,  0.20,  0.20,  0.20,  0.20
! <Environment:Weather Station>,Wind Sensor Height Above Ground {m},Wind Speed Profile Exponent {},Wind Speed Profile Boundary Layer Thickness {m},Air Temperature Sensor Height Above Ground {m},Wind Speed Modifier Coefficient-Internal,Temperature Modifier Coefficient-Internal
Environment:Weather Station,10.000,0.140,270.000,1.500,1.586,9.750E-003
! <Site:Location>, Location Name, Latitude {N+/S- Deg}, Longitude {E+/W- Deg},  Time Zone Number {GMT+/-}, Elevation {m},  Standard Pressure at Elevation {Pa}, Standard RhoAir at Elevation
Site:Location,Chongqing Shapingba Chongqing CHN CSWD WMO#=575160,29.58,106.47,8.00,259.10,98251,1.1678
! <Building Information>, Building Name,North Axis {deg},Terrain,  Loads Convergence Tolerance Value,Temperature Convergence Tolerance Value,  Solar Distribution,Maximum Number of Warmup Days,Minimum Number of Warmup Days
 Building Information,3cengzhuzhai,45.914,City,4.00000E-002,0.40000,FullInteriorAndExterior,25,6
! <Inside Convection Algorithm>, Algorithm {Simple | TARP | CeilingDiffuser | AdaptiveConvectionAlgorithm}
Inside Convection Algorithm,AdaptiveConvectionAlgorithm
! <Outside Convection Algorithm>, Algorithm {SimpleCombined | TARP | MoWitt | DOE-2 | AdaptiveConvectionAlgorithm}
Outside Convection Algorithm,AdaptiveConvectionAlgorithm
! <Sky Radiance Distribution>, Value {Anisotropic}
Sky Radiance Distribution,Anisotropic
! <Zone Air Solution Algorithm>, Value {ThirdOrderBackwardDifference | AnalyticalSolution | EulerMethod}
 Zone Air Solution Algorithm, ThirdOrderBackwardDifference
! <Zone Air Carbon Dioxide Balance Simulation>, Simulation {Yes/No}, Carbon Dioxide Concentration
 Zone Air Carbon Dioxide Balance Simulation, No,N/A
! <Zone Air Generic Contaminant Balance Simulation>, Simulation {Yes/No}, Generic Contaminant Concentration
 Zone Air Generic Contaminant Balance Simulation, No,N/A
! <Zone Air Mass Flow Balance Simulation>, Enforce Mass Balance, Adjust Zone Mixing, Adjust Zone Infiltration {AddInfiltration | AdjustInfiltration | None}, Infiltration Zones {MixingSourceZonesOnly | AllZones}
 Zone Air Mass Flow Balance Simulation, No,N/A,N/A,N/A
! <Environment:Site Atmospheric Variation>,Wind Speed Profile Exponent {},Wind Speed Profile Boundary Layer Thickness {m},Air Temperature Gradient Coefficient {K/m}
Environment:Site Atmospheric Variation,0.330,460.000,6.500000E-003
! <Surface Geometry>,Starting Corner,Vertex Input Direction,Coordinate System,Daylight Reference Point Coordinate System,Rectangular (Simple) Surface Coordinate System
 Surface Geometry,UpperLeftCorner,Counterclockwise,RelativeCoordinateSystem,RelativeCoordinateSystem,RelativeToZoneOrigin
! <Surface Heat Transfer Algorithm>, Value {CTF - ConductionTransferFunction | EMPD - MoisturePenetrationDepthConductionTransferFunction | CondFD - ConductionFiniteDifference | HAMT - CombinedHeatAndMoistureFiniteElement} - Description,Inside Surface Max Temperature Limit{C}, Surface Convection Coefficient Lower Limit {W/m2-K}, Surface Convection Coefficient Upper Limit {W/m2-K}
Surface Heat Transfer Algorithm, CTF - ConductionTransferFunction,200,0.10,1000.0
! <Shading Summary>, Number of Fixed Detached Shades, Number of Building Detached Shades, Number of Attached Shades
 Shading Summary,0,0,0
! <Zone Summary>, Number of Zones, Number of Zone Surfaces, Number of SubSurfaces
 Zone Summary,63,498,60
! <Zone Information>,Zone Name,North Axis {deg},Origin X-Coordinate {m},Origin Y-Coordinate {m},Origin Z-Coordinate {m},Centroid X-Coordinate {m},Centroid Y-Coordinate {m},Centroid Z-Coordinate {m},Type,Zone Multiplier,Zone List Multiplier,Minimum X {m},Maximum X {m},Minimum Y {m},Maximum Y {m},Minimum Z {m},Maximum Z {m},Ceiling Height {m},Volume {m3},Zone Inside Convection Algorithm {Simple-Detailed-CeilingDiffuser-TrombeWall},Zone Outside Convection Algorithm {Simple-Detailed-Tarp-MoWitt-DOE-2-BLAST}, Floor Area {m2},Exterior Gross Wall Area {m2},Exterior Net Wall Area {m2},Exterior Window Area {m2}, Number of Surfaces, Number of SubSurfaces, Number of Shading SubSurfaces,  Part of Total Building Area
 Zone Information, KITCHEN1.1,0.0,8.60,3.00,0.00,10.59,-3.39,1.50,1,1,1,8.14,13.04,-5.81,-0.96,0.00,3.00,3.00,32.40,AdaptiveConvectionAlgorithm,AdaptiveConvectionAlgorithm,10.80,0.00,0.00,0.00,6,0,0,Yes
 Zone Information, BEDROOM1.4,0.0,16.00,0.00,0.00,14.30,-12.60,1.50,1,1,1,11.13,17.46,-15.80,-9.41,0.00,3.00,3.00,54.00,AdaptiveConvectionAlgorithm,AdaptiveConvectionAlgorithm,18.00,27.00,23.19,3.81,6,2,0,Yes
 Zone Information, KITCHEN1.2,0.0,11.00,3.00,0.00,12.26,-5.11,1.50,1,1,1,9.81,14.71,-7.54,-2.68,0.00,3.00,3.00,32.40,AdaptiveConvectionAlgorithm,AdaptiveConvectionAlgorithm,10.80,0.00,0.00,0.00,6,0,0,Yes
 Zone Information, LIVINGROOM1.2,0.0,13.50,3.00,0.00,16.09,-9.06,1.50,1,1,1,11.48,20.69,-13.72,-4.41,0.00,3.00,3.00,116.10,AdaptiveConvectionAlgorithm,AdaptiveConvectionAlgorithm,38.70,13.50,11.53,1.97,8,1,0,Yes
 Zone Information, BEDROOM1.7,0.0,0.00,11.00,0.00,11.77,6.18,1.50,1,1,1,7.90,15.63,2.27,10.09,0.00,3.00,3.00,78.75,AdaptiveConvectionAlgorithm,AdaptiveConvectionAlgorithm,26.25,10.50,8.88,1.62,6,1,0,Yes
 Zone Information, LIVINGROOM1.3,0.0,0.00,14.50,0.00,15.02,8.56,1.50,1,1,1,10.42,19.63,3.91,13.22,0.00,3.00,3.00,116.10,AdaptiveConvectionAlgorithm,AdaptiveConvectionAlgorithm,38.70,13.50,11.42,2.08,8,1,0,Yes
 Zone Information, BEDROOM1.9,0.0,0.00,19.00,0.00,16.81,12.11,1.50,1,1,1,13.65,19.98,8.91,15.31,0.00,3.00,3.00,54.00,AdaptiveConvectionAlgorithm,AdaptiveConvectionAlgorithm,18.00,27.00,24.04,2.96,6,2,0,Yes
 Zone Information, BEDROOM1.10,0.0,6.00,19.00,0.00,20.64,8.16,1.50,1,1,1,17.82,23.46,5.32,11.00,0.00,3.00,3.00,45.00,AdaptiveConvectionAlgorithm,AdaptiveConvectionAlgorithm,15.00,15.00,13.43,1.57,7,1,0,Yes
 Zone Information, BEDROOM1.11,0.0,11.00,19.00,0.00,24.12,4.57,1.50,1,1,1,21.30,26.93,1.73,7.40,0.00,3.00,3.00,45.00,AdaptiveConvectionAlgorithm,AdaptiveConvectionAlgorithm,15.00,15.00,13.43,1.57,7,1,0,Yes
 Zone Information, BEDROOM1.12,0.0,16.00,19.00,0.00,27.94,0.61,1.50,1,1,1,24.78,31.11,-2.58,3.81,0.00,3.00,3.00,54.00,AdaptiveConvectionAlgorithm,AdaptiveConvectionAlgorithm,18.00,27.00,24.11,2.89,6,2,0,Yes
 Zone Information, STAIRCASE1.1,0.0,7.50,7.50,0.00,15.55,-0.25,1.50,1,1,1,10.61,20.50,-5.20,4.70,0.00,3.00,3.00,147.00,AdaptiveConvectionAlgorithm,AdaptiveConvectionAlgorithm,49.00,0.00,0.00,0.00,14,0,0,Yes
 Zone Information, KITCHEN1.3,0.0,8.60,14.50,0.00,18.85,4.61,1.50,1,1,1,16.40,21.30,2.19,7.04,0.00,3.00,3.00,32.40,AdaptiveConvectionAlgorithm,AdaptiveConvectionAlgorithm,10.80,0.00,0.00,0.00,6,0,0,Yes
 Zone Information, KITCHEN1.4,0.0,11.00,14.50,0.00,20.52,2.89,1.50,1,1,1,18.07,22.97,0.46,5.32,0.00,3.00,3.00,32.40,AdaptiveConvectionAlgorithm,AdaptiveConvectionAlgorithm,10.80,0.00,0.00,0.00,6,0,0,Yes
 Zone Information, LIVINGROOM1.4,0.0,13.40,14.50,0.00,24.35,-1.06,1.50,1,1,1,19.74,28.95,-5.71,3.59,0.00,3.00,3.00,116.10,AdaptiveConvectionAlgorithm,AdaptiveConvectionAlgorithm,38.70,13.50,11.53,1.97,8,1,0,Yes
 Zone Information, BEDROOM1.6,0.0,14.50,7.50,0.00,19.34,-6.67,1.50,1,1,1,15.48,23.21,-10.58,-2.76,0.00,3.00,3.00,78.75,AdaptiveConvectionAlgorithm,AdaptiveConvectionAlgorithm,26.25,10.50,8.96,1.54,6,1,0,Yes
 Zone Information, BEDROOM1.8,0.0,14.50,11.00,0.00,21.86,-4.24,1.50,1,1,1,17.99,25.72,-8.15,-0.33,0.00,3.00,3.00,78.75,AdaptiveConvectionAlgorithm,AdaptiveConvectionAlgorithm,26.25,10.50,8.96,1.54,6,1,0,Yes
 Zone Information, BEDROOM1.3,0.0,11.00,0.00,0.00,10.47,-8.65,1.50,1,1,1,7.65,13.29,-11.49,-5.81,0.00,3.00,3.00,45.00,AdaptiveConvectionAlgorithm,AdaptiveConvectionAlgorithm,15.00,15.00,12.50,2.50,7,1,0,Yes
 Zone Information, BEDROOM1.2,0.0,6.00,0.00,0.00,6.99,-5.06,1.50,1,1,1,4.17,9.81,-7.90,-2.22,0.00,3.00,3.00,45.00,AdaptiveConvectionAlgorithm,AdaptiveConvectionAlgorithm,15.00,15.00,12.50,2.50,7,1,0,Yes
 Zone Information, BEDROOM1.1,0.0,0.00,0.00,0.00,3.16,-1.11,1.50,1,1,1,0.00,6.33,-4.31,2.09,0.00,3.00,3.00,54.00,AdaptiveConvectionAlgorithm,AdaptiveConvectionAlgorithm,18.00,27.00,23.12,3.88,6,2,0,Yes
 Zone Information, LIVINGROOM1.1,0.0,0.00,3.00,0.00,6.76,0.56,1.50,1,1,1,2.15,11.37,-4.09,5.22,0.00,3.00,3.00,116.10,AdaptiveConvectionAlgorithm,AdaptiveConvectionAlgorithm,38.70,13.50,11.42,2.08,8,1,0,Yes
 Zone Information, BEDROOM1.5,0.0,0.00,7.50,0.00,9.25,3.74,1.50,1,1,1,5.39,13.12,-0.17,7.65,0.00,3.00,3.00,78.75,AdaptiveConvectionAlgorithm,AdaptiveConvectionAlgorithm,26.25,10.50,8.88,1.62,6,1,0,Yes
 Zone Information, LIVINGROOM2.4,0.0,13.40,14.50,0.00,24.35,-1.06,4.50,1,1,1,19.74,28.95,-5.71,3.59,3.00,6.00,3.00,116.10,AdaptiveConvectionAlgorithm,AdaptiveConvectionAlgorithm,38.70,13.50,11.53,1.97,8,1,0,Yes
 Zone Information, BEDROOM2.5,0.0,0.00,7.50,0.00,9.25,3.74,4.50,1,1,1,5.39,13.12,-0.17,7.65,3.00,6.00,3.00,78.75,AdaptiveConvectionAlgorithm,AdaptiveConvectionAlgorithm,26.25,10.50,8.88,1.62,6,1,0,Yes
 Zone Information, LIVINGROOM2.1,0.0,0.00,3.00,0.00,6.76,0.56,4.50,1,1,1,2.15,11.37,-4.09,5.22,3.00,6.00,3.00,116.10,AdaptiveConvectionAlgorithm,AdaptiveConvectionAlgorithm,38.70,13.50,11.42,2.08,8,1,0,Yes
 Zone Information, BEDROOM2.11,0.0,11.00,19.00,0.00,24.12,4.57,4.50,1,1,1,21.30,26.95,1.73,7.40,3.00,6.00,3.00,45.00,AdaptiveConvectionAlgorithm,AdaptiveConvectionAlgorithm,15.00,15.00,13.43,1.57,7,1,0,Yes
 Zone Information, BEDROOM2.10,0.0,6.00,19.00,0.00,20.64,8.16,4.50,1,1,1,17.82,23.47,5.32,11.00,3.00,6.00,3.00,45.00,AdaptiveConvectionAlgorithm,AdaptiveConvectionAlgorithm,15.00,15.00,13.43,1.57,7,1,0,Yes
 Zone Information, BEDROOM2.9,0.0,0.00,19.00,0.00,16.81,12.11,4.50,1,1,1,13.65,19.98,8.91,15.31,3.00,6.00,3.00,54.00,AdaptiveConvectionAlgorithm,AdaptiveConvectionAlgorithm,18.00,27.00,24.04,2.96,6,2,0,Yes
 Zone Information, LIVINGROOM2.3,0.0,0.00,14.50,0.00,15.02,8.56,4.50,1,1,1,10.42,19.63,3.91,13.22,3.00,6.00,3.00,116.10,AdaptiveConvectionAlgorithm,AdaptiveConvectionAlgorithm,38.70,13.50,11.42,2.08,8,1,0,Yes
 Zone Information, BEDROOM2.7,0.0,0.00,11.00,0.00,11.77,6.18,4.50,1,1,1,7.90,15.63,2.27,10.09,3.00,6.00,3.00,78.75,AdaptiveConvectionAlgorithm,AdaptiveConvectionAlgorithm,26.25,10.50,8.88,1.62,6,1,0,Yes
 Zone Information, LIVINGROOM2.2,0.0,13.50,3.00,0.00,16.09,-9.06,4.50,1,1,1,11.48,20.69,-13.72,-4.41,3.00,6.00,3.00,116.10,AdaptiveConvectionAlgorithm,AdaptiveConvectionAlgorithm,38.70,13.50,11.53,1.97,8,1,0,Yes
 Zone Information, BEDROOM2.2,0.0,6.00,0.00,0.00,6.99,-5.06,4.50,1,1,1,4.17,9.81,-8.14,-2.22,3.00,6.00,3.00,45.00,AdaptiveConvectionAlgorithm,AdaptiveConvectionAlgorithm,15.00,15.00,12.50,2.50,7,1,0,Yes
 Zone Information, BEDROOM2.8,0.0,14.50,11.00,0.00,21.86,-4.24,4.50,1,1,1,17.99,25.72,-8.15,-0.33,3.00,6.00,3.00,78.75,AdaptiveConvectionAlgorithm,AdaptiveConvectionAlgorithm,26.25,10.50,8.96,1.54,6,1,0,Yes
 Zone Information, BEDROOM2.3,0.0,11.00,0.00,0.00,10.47,-8.65,4.50,1,1,1,7.65,13.29,-11.73,-5.81,3.00,6.00,3.00,45.00,AdaptiveConvectionAlgorithm,AdaptiveConvectionAlgorithm,15.00,15.00,12.50,2.50,7,1,0,Yes
 Zone Information, BEDROOM2.1,0.0,0.00,0.00,0.00,3.16,-1.11,4.50,1,1,1,0.00,6.33,-4.31,2.09,3.00,6.00,3.00,54.00,AdaptiveConvectionAlgorithm,AdaptiveConvectionAlgorithm,18.00,27.00,23.12,3.88,6,2,0,Yes
 Zone Information, BEDROOM2.4,0.0,16.00,0.00,0.00,14.30,-12.60,4.50,1,1,1,11.13,17.46,-15.80,-9.41,3.00,6.00,3.00,54.00,AdaptiveConvectionAlgorithm,AdaptiveConvectionAlgorithm,18.00,27.00,23.19,3.81,6,2,0,Yes
 Zone Information, BEDROOM2.6,0.0,14.50,7.50,0.00,19.34,-6.67,4.50,1,1,1,15.48,23.21,-10.58,-2.76,3.00,6.00,3.00,78.75,AdaptiveConvectionAlgorithm,AdaptiveConvectionAlgorithm,26.25,10.50,8.96,1.54,6,1,0,Yes
 Zone Information, KITCHEN2.1,0.0,8.60,3.00,0.00,10.59,-3.39,4.50,1,1,1,8.14,13.04,-5.81,-0.96,3.00,6.00,3.00,32.40,AdaptiveConvectionAlgorithm,AdaptiveConvectionAlgorithm,10.80,0.00,0.00,0.00,6,0,0,Yes
 Zone Information, KITCHEN2.4,0.0,11.00,14.50,0.00,20.52,2.89,4.50,1,1,1,18.07,22.97,0.46,5.32,3.00,6.00,3.00,32.40,AdaptiveConvectionAlgorithm,AdaptiveConvectionAlgorithm,10.80,0.00,0.00,0.00,6,0,0,Yes
 Zone Information, KITCHEN2.3,0.0,8.60,14.50,0.00,18.85,4.61,4.50,1,1,1,16.40,21.30,2.19,7.04,3.00,6.00,3.00,32.40,AdaptiveConvectionAlgorithm,AdaptiveConvectionAlgorithm,10.80,0.00,0.00,0.00,6,0,0,Yes
 Zone Information, STAIRCASE2.1,0.0,7.50,7.50,0.00,15.55,-0.25,4.50,1,1,1,10.61,20.50,-5.20,4.70,3.00,6.00,3.00,147.00,AdaptiveConvectionAlgorithm,AdaptiveConvectionAlgorithm,49.00,0.00,0.00,0.00,14,0,0,Yes
 Zone Information, BEDROOM2.12,0.0,16.00,19.00,0.00,27.94,0.61,4.50,1,1,1,24.78,31.11,-2.58,3.81,3.00,6.00,3.00,54.00,AdaptiveConvectionAlgorithm,AdaptiveConvectionAlgorithm,18.00,27.00,24.11,2.89,6,2,0,Yes
 Zone Information, KITCHEN2.2,0.0,11.00,3.00,0.00,12.26,-5.11,4.50,1,1,1,9.81,14.71,-7.54,-2.68,3.00,6.00,3.00,32.40,AdaptiveConvectionAlgorithm,AdaptiveConvectionAlgorithm,10.80,0.00,0.00,0.00,6,0,0,Yes
 Zone Information, LIVINGROOM3.4,0.0,13.40,14.50,0.00,24.35,-1.06,7.50,1,1,1,19.74,28.95,-5.71,3.59,6.00,9.00,3.00,116.10,AdaptiveConvectionAlgorithm,AdaptiveConvectionAlgorithm,38.70,13.50,11.53,1.97,8,1,0,Yes
 Zone Information, BEDROOM3.5,0.0,0.00,7.50,0.00,9.25,3.74,7.50,1,1,1,5.39,13.12,-0.17,7.65,6.00,9.00,3.00,78.75,AdaptiveConvectionAlgorithm,AdaptiveConvectionAlgorithm,26.25,10.50,8.88,1.62,6,1,0,Yes
 Zone Information, LIVINGROOM3.1,0.0,0.00,3.00,0.00,6.76,0.56,7.50,1,1,1,2.15,11.37,-4.09,5.22,6.00,9.00,3.00,116.10,AdaptiveConvectionAlgorithm,AdaptiveConvectionAlgorithm,38.70,13.50,11.42,2.08,8,1,0,Yes
 Zone Information, BEDROOM3.11,0.0,11.00,19.00,0.00,24.12,4.57,7.50,1,1,1,21.30,29.04,1.64,7.40,6.00,9.00,3.00,45.00,AdaptiveConvectionAlgorithm,AdaptiveConvectionAlgorithm,15.00,15.00,13.43,1.57,7,1,0,Yes
 Zone Information, BEDROOM3.10,0.0,6.00,19.00,0.00,20.64,8.16,7.50,1,1,1,17.82,25.56,5.23,11.00,6.00,9.00,3.00,45.00,AdaptiveConvectionAlgorithm,AdaptiveConvectionAlgorithm,15.00,15.00,13.43,1.57,7,1,0,Yes
 Zone Information, BEDROOM3.9,0.0,0.00,19.00,0.00,16.81,12.11,7.50,1,1,1,13.65,21.39,8.91,15.31,6.00,9.00,3.00,54.00,AdaptiveConvectionAlgorithm,AdaptiveConvectionAlgorithm,18.00,27.00,24.04,2.96,6,2,0,Yes
 Zone Information, LIVINGROOM3.3,0.0,0.00,14.50,0.00,15.02,8.56,7.50,1,1,1,10.42,19.63,3.91,13.22,6.00,9.00,3.00,116.10,AdaptiveConvectionAlgorithm,AdaptiveConvectionAlgorithm,38.70,13.50,11.42,2.08,8,1,0,Yes
 Zone Information, KITCHEN3.4,0.0,11.00,14.50,0.00,20.52,2.89,7.50,1,1,1,18.07,22.97,0.46,5.32,6.00,9.00,3.00,32.40,AdaptiveConvectionAlgorithm,AdaptiveConvectionAlgorithm,10.80,0.00,0.00,0.00,6,0,0,Yes
 Zone Information, KITCHEN3.1,0.0,8.60,3.00,0.00,10.59,-3.39,7.50,1,1,1,8.14,13.04,-5.81,-0.96,6.00,9.00,3.00,32.40,AdaptiveConvectionAlgorithm,AdaptiveConvectionAlgorithm,10.80,0.00,0.00,0.00,6,0,0,Yes
 Zone Information, BEDROOM3.4,0.0,16.00,0.00,0.00,14.30,-12.60,7.50,1,1,1,11.13,17.46,-17.48,-9.41,6.00,9.00,3.00,54.00,AdaptiveConvectionAlgorithm,AdaptiveConvectionAlgorithm,18.00,27.00,23.19,3.81,6,2,0,Yes
 Zone Information, BEDROOM3.6,0.0,14.50,7.50,0.00,19.34,-6.67,7.50,1,1,1,15.48,23.21,-10.58,-2.76,6.00,9.00,3.00,78.75,AdaptiveConvectionAlgorithm,AdaptiveConvectionAlgorithm,26.25,10.50,8.96,1.54,6,1,0,Yes
 Zone Information, KITCHEN3.3,0.0,8.60,14.50,0.00,18.85,4.61,7.50,1,1,1,16.40,21.30,2.19,7.04,6.00,9.00,3.00,32.40,AdaptiveConvectionAlgorithm,AdaptiveConvectionAlgorithm,10.80,0.00,0.00,0.00,6,0,0,Yes
 Zone Information, KITCHEN3.2,0.0,11.00,3.00,0.00,12.26,-5.11,7.50,1,1,1,9.81,14.71,-7.54,-2.68,6.00,9.00,3.00,32.40,AdaptiveConvectionAlgorithm,AdaptiveConvectionAlgorithm,10.80,0.00,0.00,0.00,6,0,0,Yes
 Zone Information, BEDROOM3.12,0.0,16.00,19.00,0.00,27.94,0.61,7.50,1,1,1,24.78,32.52,-2.58,3.81,6.00,9.00,3.00,54.00,AdaptiveConvectionAlgorithm,AdaptiveConvectionAlgorithm,18.00,27.00,24.11,2.89,6,2,0,Yes
 Zone Information, STAIRCASE3.1,0.0,7.50,7.50,0.00,15.55,-0.25,7.50,1,1,1,10.61,20.50,-5.20,4.70,6.00,9.00,3.00,147.00,AdaptiveConvectionAlgorithm,AdaptiveConvectionAlgorithm,49.00,0.00,0.00,0.00,14,0,0,Yes
 Zone Information, BEDROOM3.3,0.0,11.00,0.00,0.00,10.47,-8.65,7.50,1,1,1,7.65,13.45,-13.89,-5.81,6.00,9.00,3.00,45.00,AdaptiveConvectionAlgorithm,AdaptiveConvectionAlgorithm,15.00,15.00,12.50,2.50,7,1,0,Yes
 Zone Information, BEDROOM3.1,0.0,0.00,0.00,0.00,3.16,-1.11,7.50,1,1,1,0.00,6.33,-5.99,2.09,6.00,9.00,3.00,54.00,AdaptiveConvectionAlgorithm,AdaptiveConvectionAlgorithm,18.00,27.00,23.12,3.88,6,2,0,Yes
 Zone Information, BEDROOM3.8,0.0,14.50,11.00,0.00,21.86,-4.24,7.50,1,1,1,17.99,25.72,-8.15,-0.33,6.00,9.00,3.00,78.75,AdaptiveConvectionAlgorithm,AdaptiveConvectionAlgorithm,26.25,10.50,8.96,1.54,6,1,0,Yes
 Zone Information, BEDROOM3.2,0.0,6.00,0.00,0.00,6.99,-5.06,7.50,1,1,1,4.17,9.97,-10.30,-2.22,6.00,9.00,3.00,45.00,AdaptiveConvectionAlgorithm,AdaptiveConvectionAlgorithm,15.00,15.00,12.50,2.50,7,1,0,Yes
 Zone Information, LIVINGROOM3.2,0.0,13.50,3.00,0.00,16.09,-9.06,7.50,1,1,1,11.48,20.69,-13.72,-4.41,6.00,9.00,3.00,116.10,AdaptiveConvectionAlgorithm,AdaptiveConvectionAlgorithm,38.70,13.50,11.53,1.97,8,1,0,Yes
 Zone Information, BEDROOM3.7,0.0,0.00,11.00,0.00,11.77,6.18,7.50,1,1,1,7.90,15.63,2.27,10.09,6.00,9.00,3.00,78.75,AdaptiveConvectionAlgorithm,AdaptiveConvectionAlgorithm,26.25,10.50,8.88,1.62,6,1,0,Yes
! <Zone Internal Gains Nominal>,Zone Name, Floor Area {m2},# Occupants,Area per Occupant {m2/person},Occupant per Area {person/m2},Interior Lighting {W/m2},Electric Load {W/m2},Gas Load {W/m2},Other Load {W/m2},Hot Water Eq {W/m2},Steam Equipment {W/m2},Sum Loads per Area {W/m2},Outdoor Controlled Baseboard Heat
 Zone Internal Gains Nominal, KITCHEN1.1,10.80,0.3,35.630,2.807E-002,6.000,4.300,0.000,0.000,0.000,0.000,10.300,No
 Zone Internal Gains Nominal, BEDROOM1.4,18.00,0.5,35.630,2.807E-002,3.000,4.300,0.000,0.000,0.000,0.000,7.300,No
 Zone Internal Gains Nominal, KITCHEN1.2,10.80,0.3,35.630,2.807E-002,6.000,4.300,0.000,0.000,0.000,0.000,10.300,No
 Zone Internal Gains Nominal, LIVINGROOM1.2,38.70,1.1,35.630,2.807E-002,5.000,4.300,0.000,0.000,0.000,0.000,9.300,No
 Zone Internal Gains Nominal, BEDROOM1.7,26.25,0.7,35.630,2.807E-002,3.000,4.300,0.000,0.000,0.000,0.000,7.300,No
 Zone Internal Gains Nominal, LIVINGROOM1.3,38.70,1.1,35.630,2.807E-002,5.000,4.300,0.000,0.000,0.000,0.000,9.300,No
 Zone Internal Gains Nominal, BEDROOM1.9,18.00,0.5,35.630,2.807E-002,3.000,4.300,0.000,0.000,0.000,0.000,7.300,No
 Zone Internal Gains Nominal, BEDROOM1.10,15.00,0.4,35.630,2.807E-002,3.000,4.300,0.000,0.000,0.000,0.000,7.300,No
 Zone Internal Gains Nominal, BEDROOM1.11,15.00,0.4,35.630,2.807E-002,3.000,4.300,0.000,0.000,0.000,0.000,7.300,No
 Zone Internal Gains Nominal, BEDROOM1.12,18.00,0.5,35.630,2.807E-002,3.000,4.300,0.000,0.000,0.000,0.000,7.300,No
 Zone Internal Gains Nominal, STAIRCASE1.1,49.00,0.0,N/A,0.000,0.000,0.000,0.000,0.000,0.000,0.000,0.000,No
 Zone Internal Gains Nominal, KITCHEN1.3,10.80,0.3,35.630,2.807E-002,6.000,4.300,0.000,0.000,0.000,0.000,10.300,No
 Zone Internal Gains Nominal, KITCHEN1.4,10.80,0.3,35.630,2.807E-002,6.000,4.300,0.000,0.000,0.000,0.000,10.300,No
 Zone Internal Gains Nominal, LIVINGROOM1.4,38.70,1.1,35.630,2.807E-002,5.000,4.300,0.000,0.000,0.000,0.000,9.300,No
 Zone Internal Gains Nominal, BEDROOM1.6,26.25,0.7,35.630,2.807E-002,3.000,4.300,0.000,0.000,0.000,0.000,7.300,No
 Zone Internal Gains Nominal, BEDROOM1.8,26.25,0.7,35.630,2.807E-002,3.000,4.300,0.000,0.000,0.000,0.000,7.300,No
 Zone Internal Gains Nominal, BEDROOM1.3,15.00,0.4,35.630,2.807E-002,3.000,4.300,0.000,0.000,0.000,0.000,7.300,No
 Zone Internal Gains Nominal, BEDROOM1.2,15.00,0.4,35.630,2.807E-002,3.000,4.300,0.000,0.000,0.000,0.000,7.300,No
 Zone Internal Gains Nominal, BEDROOM1.1,18.00,0.5,35.630,2.807E-002,3.000,4.300,0.000,0.000,0.000,0.000,7.300,No
 Zone Internal Gains Nominal, LIVINGROOM1.1,38.70,1.1,35.630,2.807E-002,5.000,4.300,0.000,0.000,0.000,0.000,9.300,No
 Zone Internal Gains Nominal, BEDROOM1.5,26.25,0.7,35.630,2.807E-002,3.000,4.300,0.000,0.000,0.000,0.000,7.300,No
 Zone Internal Gains Nominal, LIVINGROOM2.4,38.70,1.1,35.630,2.807E-002,5.000,4.300,0.000,0.000,0.000,0.000,9.300,No
 Zone Internal Gains Nominal, BEDROOM2.5,26.25,0.7,35.630,2.807E-002,3.000,4.300,0.000,0.000,0.000,0.000,7.300,No
 Zone Internal Gains Nominal, LIVINGROOM2.1,38.70,1.1,35.630,2.807E-002,5.000,4.300,0.000,0.000,0.000,0.000,9.300,No
 Zone Internal Gains Nominal, BEDROOM2.11,15.00,0.4,35.630,2.807E-002,3.000,4.300,0.000,0.000,0.000,0.000,7.300,No
 Zone Internal Gains Nominal, BEDROOM2.10,15.00,0.4,35.630,2.807E-002,3.000,4.300,0.000,0.000,0.000,0.000,7.300,No
 Zone Internal Gains Nominal, BEDROOM2.9,18.00,0.5,35.630,2.807E-002,3.000,4.300,0.000,0.000,0.000,0.000,7.300,No
 Zone Internal Gains Nominal, LIVINGROOM2.3,38.70,1.1,35.630,2.807E-002,5.000,4.300,0.000,0.000,0.000,0.000,9.300,No
 Zone Internal Gains Nominal, BEDROOM2.7,26.25,0.7,35.630,2.807E-002,3.000,4.300,0.000,0.000,0.000,0.000,7.300,No
 Zone Internal Gains Nominal, LIVINGROOM2.2,38.70,1.1,35.630,2.807E-002,5.000,4.300,0.000,0.000,0.000,0.000,9.300,No
 Zone Internal Gains Nominal, BEDROOM2.2,15.00,0.4,35.630,2.807E-002,3.000,4.300,0.000,0.000,0.000,0.000,7.300,No
 Zone Internal Gains Nominal, BEDROOM2.8,26.25,0.7,35.630,2.807E-002,3.000,4.300,0.000,0.000,0.000,0.000,7.300,No
 Zone Internal Gains Nominal, BEDROOM2.3,15.00,0.4,35.630,2.807E-002,3.000,4.300,0.000,0.000,0.000,0.000,7.300,No
 Zone Internal Gains Nominal, BEDROOM2.1,18.00,0.5,35.630,2.807E-002,3.000,4.300,0.000,0.000,0.000,0.000,7.300,No
 Zone Internal Gains Nominal, BEDROOM2.4,18.00,0.5,35.630,2.807E-002,3.000,4.300,0.000,0.000,0.000,0.000,7.300,No
 Zone Internal Gains Nominal, BEDROOM2.6,26.25,0.7,35.630,2.807E-002,3.000,4.300,0.000,0.000,0.000,0.000,7.300,No
 Zone Internal Gains Nominal, KITCHEN2.1,10.80,0.3,35.630,2.807E-002,6.000,4.300,0.000,0.000,0.000,0.000,10.300,No
 Zone Internal Gains Nominal, KITCHEN2.4,10.80,0.3,35.630,2.807E-002,6.000,4.300,0.000,0.000,0.000,0.000,10.300,No
 Zone Internal Gains Nominal, KITCHEN2.3,10.80,0.3,35.630,2.807E-002,6.000,4.300,0.000,0.000,0.000,0.000,10.300,No
 Zone Internal Gains Nominal, STAIRCASE2.1,49.00,0.0,N/A,0.000,0.000,0.000,0.000,0.000,0.000,0.000,0.000,No
 Zone Internal Gains Nominal, BEDROOM2.12,18.00,0.5,35.630,2.807E-002,3.000,4.300,0.000,0.000,0.000,0.000,7.300,No
 Zone Internal Gains Nominal, KITCHEN2.2,10.80,0.3,35.630,2.807E-002,6.000,4.300,0.000,0.000,0.000,0.000,10.300,No
 Zone Internal Gains Nominal, LIVINGROOM3.4,38.70,1.1,35.630,2.807E-002,5.000,4.300,0.000,0.000,0.000,0.000,9.300,No
 Zone Internal Gains Nominal, BEDROOM3.5,26.25,0.7,35.630,2.807E-002,3.000,4.300,0.000,0.000,0.000,0.000,7.300,No
 Zone Internal Gains Nominal, LIVINGROOM3.1,38.70,1.1,35.630,2.807E-002,5.000,4.300,0.000,0.000,0.000,0.000,9.300,No
 Zone Internal Gains Nominal, BEDROOM3.11,15.00,0.4,35.630,2.807E-002,3.000,4.300,0.000,0.000,0.000,0.000,7.300,No
 Zone Internal Gains Nominal, BEDROOM3.10,15.00,0.4,35.630,2.807E-002,3.000,4.300,0.000,0.000,0.000,0.000,7.300,No
 Zone Internal Gains Nominal, BEDROOM3.9,18.00,0.5,35.630,2.807E-002,3.000,4.300,0.000,0.000,0.000,0.000,7.300,No
 Zone Internal Gains Nominal, LIVINGROOM3.3,38.70,1.1,35.630,2.807E-002,5.000,4.300,0.000,0.000,0.000,0.000,9.300,No
 Zone Internal Gains Nominal, KITCHEN3.4,10.80,0.3,35.630,2.807E-002,6.000,4.300,0.000,0.000,0.000,0.000,10.300,No
 Zone Internal Gains Nominal, KITCHEN3.1,10.80,0.3,35.630,2.807E-002,6.000,4.300,0.000,0.000,0.000,0.000,10.300,No
 Zone Internal Gains Nominal, BEDROOM3.4,18.00,0.5,35.630,2.807E-002,3.000,4.300,0.000,0.000,0.000,0.000,7.300,No
 Zone Internal Gains Nominal, BEDROOM3.6,26.25,0.7,35.630,2.807E-002,3.000,4.300,0.000,0.000,0.000,0.000,7.300,No
 Zone Internal Gains Nominal, KITCHEN3.3,10.80,0.3,35.630,2.807E-002,6.000,4.300,0.000,0.000,0.000,0.000,10.300,No
 Zone Internal Gains Nominal, KITCHEN3.2,10.80,0.3,35.630,2.807E-002,6.000,4.300,0.000,0.000,0.000,0.000,10.300,No
 Zone Internal Gains Nominal, BEDROOM3.12,18.00,0.5,35.630,2.807E-002,3.000,4.300,0.000,0.000,0.000,0.000,7.300,No
 Zone Internal Gains Nominal, STAIRCASE3.1,49.00,0.0,N/A,0.000,0.000,0.000,0.000,0.000,0.000,0.000,0.000,No
 Zone Internal Gains Nominal, BEDROOM3.3,15.00,0.4,35.630,2.807E-002,3.000,4.300,0.000,0.000,0.000,0.000,7.300,No
 Zone Internal Gains Nominal, BEDROOM3.1,18.00,0.5,35.630,2.807E-002,3.000,4.300,0.000,0.000,0.000,0.000,7.300,No
 Zone Internal Gains Nominal, BEDROOM3.8,26.25,0.7,35.630,2.807E-002,3.000,4.300,0.000,0.000,0.000,0.000,7.300,No
 Zone Internal Gains Nominal, BEDROOM3.2,15.00,0.4,35.630,2.807E-002,3.000,4.300,0.000,0.000,0.000,0.000,7.300,No
 Zone Internal Gains Nominal, LIVINGROOM3.2,38.70,1.1,35.630,2.807E-002,5.000,4.300,0.000,0.000,0.000,0.000,9.300,No
 Zone Internal Gains Nominal, BEDROOM3.7,26.25,0.7,35.630,2.807E-002,3.000,4.300,0.000,0.000,0.000,0.000,7.300,No
! <People Internal Gains Nominal>,Name,Schedule Name,Zone Name,Zone Floor Area {m2},# Zone Occupants,Number of People {},People/Floor Area {person/m2},Floor Area per person {m2/person},Fraction Radiant,Fraction Convected,Sensible Fraction Calculation,Activity level,ASHRAE 55 Warnings,Carbon Dioxide Generation Rate,Nominal Minimum Number of People,Nominal Maximum Number of People
 People Internal Gains Nominal, BEDROOM3.2,BEDROOM OCCUPANCY,BEDROOM3.2,15.00,0.4,0.4,2.807E-002,35.630,0.200,0.800,AutoCalculate,ACTIVITY_ZUOZI HUODONG,No,3.8200E-008,0,0
 People Internal Gains Nominal, KITCHEN1.1,CHUFANG OCCUPANCY,KITCHEN1.1,10.80,0.3,0.3,2.807E-002,35.630,0.200,0.800,AutoCalculate,ACTIVITY_ZUOZI HUODONG,No,3.8200E-008,0,0
 People Internal Gains Nominal, KITCHEN1.2,CHUFANG OCCUPANCY,KITCHEN1.2,10.80,0.3,0.3,2.807E-002,35.630,0.200,0.800,AutoCalculate,ACTIVITY_ZUOZI HUODONG,No,3.8200E-008,0,0
 People Internal Gains Nominal, KITCHEN1.3,CHUFANG OCCUPANCY,KITCHEN1.3,10.80,0.3,0.3,2.807E-002,35.630,0.200,0.800,AutoCalculate,ACTIVITY_ZUOZI HUODONG,No,3.8200E-008,0,0
 People Internal Gains Nominal, KITCHEN1.4,CHUFANG OCCUPANCY,KITCHEN1.4,10.80,0.3,0.3,2.807E-002,35.630,0.200,0.800,AutoCalculate,ACTIVITY_ZUOZI HUODONG,No,3.8200E-008,0,0
 People Internal Gains Nominal, LIVINGROOM1.1,KETING OCCUPANCY,LIVINGROOM1.1,38.70,1.1,1.1,2.807E-002,35.630,0.200,0.800,AutoCalculate,ACTIVITY_ZUOZI HUODONG,No,3.8200E-008,0,1
 People Internal Gains Nominal, LIVINGROOM1.2,KETING OCCUPANCY,LIVINGROOM1.2,38.70,1.1,1.1,2.807E-002,35.630,0.200,0.800,AutoCalculate,ACTIVITY_ZUOZI HUODONG,No,3.8200E-008,0,1
 People Internal Gains Nominal, LIVINGROOM1.3,KETING OCCUPANCY,LIVINGROOM1.3,38.70,1.1,1.1,2.807E-002,35.630,0.200,0.800,AutoCalculate,ACTIVITY_ZUOZI HUODONG,No,3.8200E-008,0,1
 People Internal Gains Nominal, LIVINGROOM1.4,KETING OCCUPANCY,LIVINGROOM1.4,38.70,1.1,1.1,2.807E-002,35.630,0.200,0.800,AutoCalculate,ACTIVITY_ZUOZI HUODONG,No,3.8200E-008,0,1
 People Internal Gains Nominal, BEDROOM1.1,BEDROOM OCCUPANCY,BEDROOM1.1,18.00,0.5,0.5,2.807E-002,35.630,0.200,0.800,AutoCalculate,ACTIVITY_ZUOZI HUODONG,No,3.8200E-008,0,1
 People Internal Gains Nominal, BEDROOM1.2,BEDROOM OCCUPANCY,BEDROOM1.2,15.00,0.4,0.4,2.807E-002,35.630,0.200,0.800,AutoCalculate,ACTIVITY_ZUOZI HUODONG,No,3.8200E-008,0,0
 People Internal Gains Nominal, BEDROOM1.3,BEDROOM OCCUPANCY,BEDROOM1.3,15.00,0.4,0.4,2.807E-002,35.630,0.200,0.800,AutoCalculate,ACTIVITY_ZUOZI HUODONG,No,3.8200E-008,0,0
 People Internal Gains Nominal, BEDROOM1.4,BEDROOM OCCUPANCY,BEDROOM1.4,18.00,0.5,0.5,2.807E-002,35.630,0.200,0.800,AutoCalculate,ACTIVITY_ZUOZI HUODONG,No,3.8200E-008,0,1
 People Internal Gains Nominal, BEDROOM1.5,BEDROOM OCCUPANCY,BEDROOM1.5,26.25,0.7,0.7,2.807E-002,35.630,0.200,0.800,AutoCalculate,ACTIVITY_ZUOZI HUODONG,No,3.8200E-008,0,1
 People Internal Gains Nominal, BEDROOM1.6,BEDROOM OCCUPANCY,BEDROOM1.6,26.25,0.7,0.7,2.807E-002,35.630,0.200,0.800,AutoCalculate,ACTIVITY_ZUOZI HUODONG,No,3.8200E-008,0,1
 People Internal Gains Nominal, BEDROOM1.7,BEDROOM OCCUPANCY,BEDROOM1.7,26.25,0.7,0.7,2.807E-002,35.630,0.200,0.800,AutoCalculate,ACTIVITY_ZUOZI HUODONG,No,3.8200E-008,0,1
 People Internal Gains Nominal, BEDROOM1.8,BEDROOM OCCUPANCY,BEDROOM1.8,26.25,0.7,0.7,2.807E-002,35.630,0.200,0.800,AutoCalculate,ACTIVITY_ZUOZI HUODONG,No,3.8200E-008,0,1
 People Internal Gains Nominal, BEDROOM1.9,BEDROOM OCCUPANCY,BEDROOM1.9,18.00,0.5,0.5,2.807E-002,35.630,0.200,0.800,AutoCalculate,ACTIVITY_ZUOZI HUODONG,No,3.8200E-008,0,1
 People Internal Gains Nominal, BEDROOM1.10,BEDROOM OCCUPANCY,BEDROOM1.10,15.00,0.4,0.4,2.807E-002,35.630,0.200,0.800,AutoCalculate,ACTIVITY_ZUOZI HUODONG,No,3.8200E-008,0,0
 People Internal Gains Nominal, BEDROOM1.11,BEDROOM OCCUPANCY,BEDROOM1.11,15.00,0.4,0.4,2.807E-002,35.630,0.200,0.800,AutoCalculate,ACTIVITY_ZUOZI HUODONG,No,3.8200E-008,0,0
 People Internal Gains Nominal, BEDROOM1.12,BEDROOM OCCUPANCY,BEDROOM1.12,18.00,0.5,0.5,2.807E-002,35.630,0.200,0.800,AutoCalculate,ACTIVITY_ZUOZI HUODONG,No,3.8200E-008,0,1
 People Internal Gains Nominal, KITCHEN2.1,CHUFANG OCCUPANCY,KITCHEN2.1,10.80,0.3,0.3,2.807E-002,35.630,0.200,0.800,AutoCalculate,ACTIVITY_ZUOZI HUODONG,No,3.8200E-008,0,0
 People Internal Gains Nominal, KITCHEN2.2,CHUFANG OCCUPANCY,KITCHEN2.2,10.80,0.3,0.3,2.807E-002,35.630,0.200,0.800,AutoCalculate,ACTIVITY_ZUOZI HUODONG,No,3.8200E-008,0,0
 People Internal Gains Nominal, KITCHEN2.3,CHUFANG OCCUPANCY,KITCHEN2.3,10.80,0.3,0.3,2.807E-002,35.630,0.200,0.800,AutoCalculate,ACTIVITY_ZUOZI HUODONG,No,3.8200E-008,0,0
 People Internal Gains Nominal, KITCHEN2.4,CHUFANG OCCUPANCY,KITCHEN2.4,10.80,0.3,0.3,2.807E-002,35.630,0.200,0.800,AutoCalculate,ACTIVITY_ZUOZI HUODONG,No,3.8200E-008,0,0
 People Internal Gains Nominal, LIVINGROOM2.1,KETING OCCUPANCY,LIVINGROOM2.1,38.70,1.1,1.1,2.807E-002,35.630,0.200,0.800,AutoCalculate,ACTIVITY_ZUOZI HUODONG,No,3.8200E-008,0,1
 People Internal Gains Nominal, LIVINGROOM2.2,KETING OCCUPANCY,LIVINGROOM2.2,38.70,1.1,1.1,2.807E-002,35.630,0.200,0.800,AutoCalculate,ACTIVITY_ZUOZI HUODONG,No,3.8200E-008,0,1
 People Internal Gains Nominal, LIVINGROOM2.3,KETING OCCUPANCY,LIVINGROOM2.3,38.70,1.1,1.1,2.807E-002,35.630,0.200,0.800,AutoCalculate,ACTIVITY_ZUOZI HUODONG,No,3.8200E-008,0,1
 People Internal Gains Nominal, LIVINGROOM2.4,KETING OCCUPANCY,LIVINGROOM2.4,38.70,1.1,1.1,2.807E-002,35.630,0.200,0.800,AutoCalculate,ACTIVITY_ZUOZI HUODONG,No,3.8200E-008,0,1
 People Internal Gains Nominal, BEDROOM2.1,BEDROOM OCCUPANCY,BEDROOM2.1,18.00,0.5,0.5,2.807E-002,35.630,0.200,0.800,AutoCalculate,ACTIVITY_ZUOZI HUODONG,No,3.8200E-008,0,1
 People Internal Gains Nominal, BEDROOM2.3,BEDROOM OCCUPANCY,BEDROOM2.3,15.00,0.4,0.4,2.807E-002,35.630,0.200,0.800,AutoCalculate,ACTIVITY_ZUOZI HUODONG,No,3.8200E-008,0,0
 People Internal Gains Nominal, BEDROOM2.4,BEDROOM OCCUPANCY,BEDROOM2.4,18.00,0.5,0.5,2.807E-002,35.630,0.200,0.800,AutoCalculate,ACTIVITY_ZUOZI HUODONG,No,3.8200E-008,0,1
 People Internal Gains Nominal, BEDROOM2.5,BEDROOM OCCUPANCY,BEDROOM2.5,26.25,0.7,0.7,2.807E-002,35.630,0.200,0.800,AutoCalculate,ACTIVITY_ZUOZI HUODONG,No,3.8200E-008,0,1
 People Internal Gains Nominal, BEDROOM2.6,BEDROOM OCCUPANCY,BEDROOM2.6,26.25,0.7,0.7,2.807E-002,35.630,0.200,0.800,AutoCalculate,ACTIVITY_ZUOZI HUODONG,No,3.8200E-008,0,1
 People Internal Gains Nominal, BEDROOM2.7,BEDROOM OCCUPANCY,BEDROOM2.7,26.25,0.7,0.7,2.807E-002,35.630,0.200,0.800,AutoCalculate,ACTIVITY_ZUOZI HUODONG,No,3.8200E-008,0,1
 People Internal Gains Nominal, BEDROOM2.8,BEDROOM OCCUPANCY,BEDROOM2.8,26.25,0.7,0.7,2.807E-002,35.630,0.200,0.800,AutoCalculate,ACTIVITY_ZUOZI HUODONG,No,3.8200E-008,0,1
 People Internal Gains Nominal, BEDROOM2.9,BEDROOM OCCUPANCY,BEDROOM2.9,18.00,0.5,0.5,2.807E-002,35.630,0.200,0.800,AutoCalculate,ACTIVITY_ZUOZI HUODONG,No,3.8200E-008,0,1
 People Internal Gains Nominal, BEDROOM2.10,BEDROOM OCCUPANCY,BEDROOM2.10,15.00,0.4,0.4,2.807E-002,35.630,0.200,0.800,AutoCalculate,ACTIVITY_ZUOZI HUODONG,No,3.8200E-008,0,0
 People Internal Gains Nominal, BEDROOM2.11,BEDROOM OCCUPANCY,BEDROOM2.11,15.00,0.4,0.4,2.807E-002,35.630,0.200,0.800,AutoCalculate,ACTIVITY_ZUOZI HUODONG,No,3.8200E-008,0,0
 People Internal Gains Nominal, BEDROOM2.12,BEDROOM OCCUPANCY,BEDROOM2.12,18.00,0.5,0.5,2.807E-002,35.630,0.200,0.800,AutoCalculate,ACTIVITY_ZUOZI HUODONG,No,3.8200E-008,0,1
 People Internal Gains Nominal, KITCHEN3.1,CHUFANG OCCUPANCY,KITCHEN3.1,10.80,0.3,0.3,2.807E-002,35.630,0.200,0.800,AutoCalculate,ACTIVITY_ZUOZI HUODONG,No,3.8200E-008,0,0
 People Internal Gains Nominal, KITCHEN3.2,CHUFANG OCCUPANCY,KITCHEN3.2,10.80,0.3,0.3,2.807E-002,35.630,0.200,0.800,AutoCalculate,ACTIVITY_ZUOZI HUODONG,No,3.8200E-008,0,0
 People Internal Gains Nominal, KITCHEN3.3,CHUFANG OCCUPANCY,KITCHEN3.3,10.80,0.3,0.3,2.807E-002,35.630,0.200,0.800,AutoCalculate,ACTIVITY_ZUOZI HUODONG,No,3.8200E-008,0,0
 People Internal Gains Nominal, KITCHEN3.4,CHUFANG OCCUPANCY,KITCHEN3.4,10.80,0.3,0.3,2.807E-002,35.630,0.200,0.800,AutoCalculate,ACTIVITY_ZUOZI HUODONG,No,3.8200E-008,0,0
 People Internal Gains Nominal, LIVINGROOM3.1,KETING OCCUPANCY,LIVINGROOM3.1,38.70,1.1,1.1,2.807E-002,35.630,0.200,0.800,AutoCalculate,ACTIVITY_ZUOZI HUODONG,No,3.8200E-008,0,1
 People Internal Gains Nominal, LIVINGROOM3.2,KETING OCCUPANCY,LIVINGROOM3.2,38.70,1.1,1.1,2.807E-002,35.630,0.200,0.800,AutoCalculate,ACTIVITY_ZUOZI HUODONG,No,3.8200E-008,0,1
 People Internal Gains Nominal, LIVINGROOM3.3,KETING OCCUPANCY,LIVINGROOM3.3,38.70,1.1,1.1,2.807E-002,35.630,0.200,0.800,AutoCalculate,ACTIVITY_ZUOZI HUODONG,No,3.8200E-008,0,1
 People Internal Gains Nominal, LIVINGROOM3.4,KETING OCCUPANCY,LIVINGROOM3.4,38.70,1.1,1.1,2.807E-002,35.630,0.200,0.800,AutoCalculate,ACTIVITY_ZUOZI HUODONG,No,3.8200E-008,0,1
 People Internal Gains Nominal, BEDROOM3.1,BEDROOM OCCUPANCY,BEDROOM3.1,18.00,0.5,0.5,2.807E-002,35.630,0.200,0.800,AutoCalculate,ACTIVITY_ZUOZI HUODONG,No,3.8200E-008,0,1
 People Internal Gains Nominal, BEDROOM3.3,BEDROOM OCCUPANCY,BEDROOM3.3,15.00,0.4,0.4,2.807E-002,35.630,0.200,0.800,AutoCalculate,ACTIVITY_ZUOZI HUODONG,No,3.8200E-008,0,0
 People Internal Gains Nominal, BEDROOM3.4,BEDROOM OCCUPANCY,BEDROOM3.4,18.00,0.5,0.5,2.807E-002,35.630,0.200,0.800,AutoCalculate,ACTIVITY_ZUOZI HUODONG,No,3.8200E-008,0,1
 People Internal Gains Nominal, BEDROOM3.5,BEDROOM OCCUPANCY,BEDROOM3.5,26.25,0.7,0.7,2.807E-002,35.630,0.200,0.800,AutoCalculate,ACTIVITY_ZUOZI HUODONG,No,3.8200E-008,0,1
 People Internal Gains Nominal, BEDROOM3.6,BEDROOM OCCUPANCY,BEDROOM3.6,26.25,0.7,0.7,2.807E-002,35.630,0.200,0.800,AutoCalculate,ACTIVITY_ZUOZI HUODONG,No,3.8200E-008,0,1
 People Internal Gains Nominal, BEDROOM3.7,BEDROOM OCCUPANCY,BEDROOM3.7,26.25,0.7,0.7,2.807E-002,35.630,0.200,0.800,AutoCalculate,ACTIVITY_ZUOZI HUODONG,No,3.8200E-008,0,1
 People Internal Gains Nominal, BEDROOM3.8,BEDROOM OCCUPANCY,BEDROOM3.8,26.25,0.7,0.7,2.807E-002,35.630,0.200,0.800,AutoCalculate,ACTIVITY_ZUOZI HUODONG,No,3.8200E-008,0,1
 People Internal Gains Nominal, BEDROOM3.9,BEDROOM OCCUPANCY,BEDROOM3.9,18.00,0.5,0.5,2.807E-002,35.630,0.200,0.800,AutoCalculate,ACTIVITY_ZUOZI HUODONG,No,3.8200E-008,0,1
 People Internal Gains Nominal, BEDROOM3.10,BEDROOM OCCUPANCY,BEDROOM3.10,15.00,0.4,0.4,2.807E-002,35.630,0.200,0.800,AutoCalculate,ACTIVITY_ZUOZI HUODONG,No,3.8200E-008,0,0
 People Internal Gains Nominal, BEDROOM3.11,BEDROOM OCCUPANCY,BEDROOM3.11,15.00,0.4,0.4,2.807E-002,35.630,0.200,0.800,AutoCalculate,ACTIVITY_ZUOZI HUODONG,No,3.8200E-008,0,0
 People Internal Gains Nominal, BEDROOM3.12,BEDROOM OCCUPANCY,BEDROOM3.12,18.00,0.5,0.5,2.807E-002,35.630,0.200,0.800,AutoCalculate,ACTIVITY_ZUOZI HUODONG,No,3.8200E-008,0,1
 People Internal Gains Nominal, BEDROOM2.2,BEDROOM OCCUPANCY,BEDROOM2.2,15.00,0.4,0.4,2.807E-002,35.630,0.200,0.800,AutoCalculate,ACTIVITY_ZUOZI HUODONG,No,3.8200E-008,0,0,Zone Averaged,WORK EFFICIENCY,Clothing Insulation Schedule,N/A,CLOTHING INSULATION SCHEDULE,AIR VELOCITY SCHEDULE,Yes,No,No
! <Lights Internal Gains Nominal>,Name,Schedule Name,Zone Name,Zone Floor Area {m2},# Zone Occupants,Lighting Level {W},Lights/Floor Area {W/m2},Lights per person {W/person},Fraction Return Air,Fraction Radiant,Fraction Short Wave,Fraction Convected,Fraction Replaceable,End-Use Category,Nominal Minimum Lighting Level {W},Nominal Maximum Lighting Level {W}
 Lights Internal Gains Nominal, KITCHEN1.1,LIGHTING CHUFANG,KITCHEN1.1,10.80,0.3,64.800,6.000,213.780,0.000,0.720,0.180,0.100,1.000,General,0.000,51.840
 Lights Internal Gains Nominal, KITCHEN1.2,LIGHTING CHUFANG,KITCHEN1.2,10.80,0.3,64.800,6.000,213.780,0.000,0.720,0.180,0.100,1.000,General,0.000,51.840
 Lights Internal Gains Nominal, KITCHEN1.3,LIGHTING CHUFANG,KITCHEN1.3,10.80,0.3,64.800,6.000,213.780,0.000,0.720,0.180,0.100,1.000,General,0.000,51.840
 Lights Internal Gains Nominal, KITCHEN1.4,LIGHTING CHUFANG,KITCHEN1.4,10.80,0.3,64.800,6.000,213.780,0.000,0.720,0.180,0.100,1.000,General,0.000,51.840
 Lights Internal Gains Nominal, LIVINGROOM1.1,LIGHT-KETING,LIVINGROOM1.1,38.70,1.1,193.500,5.000,178.150,0.000,0.720,0.180,0.100,1.000,General,0.000,193.500
 Lights Internal Gains Nominal, LIVINGROOM1.2,LIGHT-KETING,LIVINGROOM1.2,38.70,1.1,193.500,5.000,178.150,0.000,0.720,0.180,0.100,1.000,General,0.000,193.500
 Lights Internal Gains Nominal, LIVINGROOM1.3,LIGHT-KETING,LIVINGROOM1.3,38.70,1.1,193.500,5.000,178.150,0.000,0.720,0.180,0.100,1.000,General,0.000,193.500
 Lights Internal Gains Nominal, LIVINGROOM1.4,LIGHT-KETING,LIVINGROOM1.4,38.70,1.1,193.500,5.000,178.150,0.000,0.720,0.180,0.100,1.000,General,0.000,193.500
 Lights Internal Gains Nominal, BEDROOM1.1,LIGHT-BEDROOM,BEDROOM1.1,18.00,0.5,54.000,3.000,106.890,0.000,0.720,0.180,0.100,1.000,General,0.000,54.000
 Lights Internal Gains Nominal, BEDROOM1.2,LIGHT-BEDROOM,BEDROOM1.2,15.00,0.4,45.000,3.000,106.890,0.000,0.720,0.180,0.100,1.000,General,0.000,45.000
 Lights Internal Gains Nominal, BEDROOM1.3,LIGHT-BEDROOM,BEDROOM1.3,15.00,0.4,45.000,3.000,106.890,0.000,0.720,0.180,0.100,1.000,General,0.000,45.000
 Lights Internal Gains Nominal, BEDROOM1.4,LIGHT-BEDROOM,BEDROOM1.4,18.00,0.5,54.000,3.000,106.890,0.000,0.720,0.180,0.100,1.000,General,0.000,54.000
 Lights Internal Gains Nominal, BEDROOM1.5,LIGHT-BEDROOM,BEDROOM1.5,26.25,0.7,78.750,3.000,106.890,0.000,0.720,0.180,0.100,1.000,General,0.000,78.750
 Lights Internal Gains Nominal, BEDROOM1.6,LIGHT-BEDROOM,BEDROOM1.6,26.25,0.7,78.750,3.000,106.890,0.000,0.720,0.180,0.100,1.000,General,0.000,78.750
 Lights Internal Gains Nominal, BEDROOM1.7,LIGHT-BEDROOM,BEDROOM1.7,26.25,0.7,78.750,3.000,106.890,0.000,0.720,0.180,0.100,1.000,General,0.000,78.750
 Lights Internal Gains Nominal, BEDROOM1.8,LIGHT-BEDROOM,BEDROOM1.8,26.25,0.7,78.750,3.000,106.890,0.000,0.720,0.180,0.100,1.000,General,0.000,78.750
 Lights Internal Gains Nominal, BEDROOM1.9,LIGHT-BEDROOM,BEDROOM1.9,18.00,0.5,54.000,3.000,106.890,0.000,0.720,0.180,0.100,1.000,General,0.000,54.000
 Lights Internal Gains Nominal, BEDROOM1.10,LIGHT-BEDROOM,BEDROOM1.10,15.00,0.4,45.000,3.000,106.890,0.000,0.720,0.180,0.100,1.000,General,0.000,45.000
 Lights Internal Gains Nominal, BEDROOM1.11,LIGHT-BEDROOM,BEDROOM1.11,15.00,0.4,45.000,3.000,106.890,0.000,0.720,0.180,0.100,1.000,General,0.000,45.000
 Lights Internal Gains Nominal, BEDROOM1.12,LIGHT-BEDROOM,BEDROOM1.12,18.00,0.5,54.000,3.000,106.890,0.000,0.720,0.180,0.100,1.000,General,0.000,54.000
 Lights Internal Gains Nominal, KITCHEN2.1,LIGHTING CHUFANG,KITCHEN2.1,10.80,0.3,64.800,6.000,213.780,0.000,0.720,0.180,0.100,1.000,General,0.000,51.840
 Lights Internal Gains Nominal, KITCHEN2.2,LIGHTING CHUFANG,KITCHEN2.2,10.80,0.3,64.800,6.000,213.780,0.000,0.720,0.180,0.100,1.000,General,0.000,51.840
 Lights Internal Gains Nominal, KITCHEN2.3,LIGHTING CHUFANG,KITCHEN2.3,10.80,0.3,64.800,6.000,213.780,0.000,0.720,0.180,0.100,1.000,General,0.000,51.840
 Lights Internal Gains Nominal, KITCHEN2.4,LIGHTING CHUFANG,KITCHEN2.4,10.80,0.3,64.800,6.000,213.780,0.000,0.720,0.180,0.100,1.000,General,0.000,51.840
 Lights Internal Gains Nominal, LIVINGROOM2.1,LIGHT-KETING,LIVINGROOM2.1,38.70,1.1,193.500,5.000,178.150,0.000,0.720,0.180,0.100,1.000,General,0.000,193.500
 Lights Internal Gains Nominal, LIVINGROOM2.2,LIGHT-KETING,LIVINGROOM2.2,38.70,1.1,193.500,5.000,178.150,0.000,0.720,0.180,0.100,1.000,General,0.000,193.500
 Lights Internal Gains Nominal, LIVINGROOM2.3,LIGHT-KETING,LIVINGROOM2.3,38.70,1.1,193.500,5.000,178.150,0.000,0.720,0.180,0.100,1.000,General,0.000,193.500
 Lights Internal Gains Nominal, LIVINGROOM2.4,LIGHT-KETING,LIVINGROOM2.4,38.70,1.1,193.500,5.000,178.150,0.000,0.720,0.180,0.100,1.000,General,0.000,193.500
 Lights Internal Gains Nominal, BEDROOM2.1,LIGHT-BEDROOM,BEDROOM2.1,18.00,0.5,54.000,3.000,106.890,0.000,0.720,0.180,0.100,1.000,General,0.000,54.000
 Lights Internal Gains Nominal, BEDROOM2.2,LIGHT-BEDROOM,BEDROOM2.2,15.00,0.4,45.000,3.000,106.890,0.000,0.720,0.180,0.100,1.000,General,0.000,45.000
 Lights Internal Gains Nominal, BEDROOM2.3,LIGHT-BEDROOM,BEDROOM2.3,15.00,0.4,45.000,3.000,106.890,0.000,0.720,0.180,0.100,1.000,General,0.000,45.000
 Lights Internal Gains Nominal, BEDROOM2.4,LIGHT-BEDROOM,BEDROOM2.4,18.00,0.5,54.000,3.000,106.890,0.000,0.720,0.180,0.100,1.000,General,0.000,54.000
 Lights Internal Gains Nominal, BEDROOM2.5,LIGHT-BEDROOM,BEDROOM2.5,26.25,0.7,78.750,3.000,106.890,0.000,0.720,0.180,0.100,1.000,General,0.000,78.750
 Lights Internal Gains Nominal, BEDROOM2.6,LIGHT-BEDROOM,BEDROOM2.6,26.25,0.7,78.750,3.000,106.890,0.000,0.720,0.180,0.100,1.000,General,0.000,78.750
 Lights Internal Gains Nominal, BEDROOM2.7,LIGHT-BEDROOM,BEDROOM2.7,26.25,0.7,78.750,3.000,106.890,0.000,0.720,0.180,0.100,1.000,General,0.000,78.750
 Lights Internal Gains Nominal, BEDROOM2.8,LIGHT-BEDROOM,BEDROOM2.8,26.25,0.7,78.750,3.000,106.890,0.000,0.720,0.180,0.100,1.000,General,0.000,78.750
 Lights Internal Gains Nominal, BEDROOM2.9,LIGHT-BEDROOM,BEDROOM2.9,18.00,0.5,54.000,3.000,106.890,0.000,0.720,0.180,0.100,1.000,General,0.000,54.000
 Lights Internal Gains Nominal, BEDROOM2.10,LIGHT-BEDROOM,BEDROOM2.10,15.00,0.4,45.000,3.000,106.890,0.000,0.720,0.180,0.100,1.000,General,0.000,45.000
 Lights Internal Gains Nominal, BEDROOM2.11,LIGHT-BEDROOM,BEDROOM2.11,15.00,0.4,45.000,3.000,106.890,0.000,0.720,0.180,0.100,1.000,General,0.000,45.000
 Lights Internal Gains Nominal, BEDROOM2.12,LIGHT-BEDROOM,BEDROOM2.12,18.00,0.5,54.000,3.000,106.890,0.000,0.720,0.180,0.100,1.000,General,0.000,54.000
 Lights Internal Gains Nominal, KITCHEN3.1,LIGHTING CHUFANG,KITCHEN3.1,10.80,0.3,64.800,6.000,213.780,0.000,0.720,0.180,0.100,1.000,General,0.000,51.840
 Lights Internal Gains Nominal, KITCHEN3.2,LIGHTING CHUFANG,KITCHEN3.2,10.80,0.3,64.800,6.000,213.780,0.000,0.720,0.180,0.100,1.000,General,0.000,51.840
 Lights Internal Gains Nominal, KITCHEN3.3,LIGHTING CHUFANG,KITCHEN3.3,10.80,0.3,64.800,6.000,213.780,0.000,0.720,0.180,0.100,1.000,General,0.000,51.840
 Lights Internal Gains Nominal, KITCHEN3.4,LIGHTING CHUFANG,KITCHEN3.4,10.80,0.3,64.800,6.000,213.780,0.000,0.720,0.180,0.100,1.000,General,0.000,51.840
 Lights Internal Gains Nominal, LIVINGROOM3.1,LIGHT-KETING,LIVINGROOM3.1,38.70,1.1,193.500,5.000,178.150,0.000,0.720,0.180,0.100,1.000,General,0.000,193.500
 Lights Internal Gains Nominal, LIVINGROOM3.2,LIGHT-KETING,LIVINGROOM3.2,38.70,1.1,193.500,5.000,178.150,0.000,0.720,0.180,0.100,1.000,General,0.000,193.500
 Lights Internal Gains Nominal, LIVINGROOM3.3,LIGHT-KETING,LIVINGROOM3.3,38.70,1.1,193.500,5.000,178.150,0.000,0.720,0.180,0.100,1.000,General,0.000,193.500
 Lights Internal Gains Nominal, LIVINGROOM3.4,LIGHT-KETING,LIVINGROOM3.4,38.70,1.1,193.500,5.000,178.150,0.000,0.720,0.180,0.100,1.000,General,0.000,193.500
 Lights Internal Gains Nominal, BEDROOM3.1,LIGHT-BEDROOM,BEDROOM3.1,18.00,0.5,54.000,3.000,106.890,0.000,0.720,0.180,0.100,1.000,General,0.000,54.000
 Lights Internal Gains Nominal, BEDROOM3.2,LIGHT-BEDROOM,BEDROOM3.2,15.00,0.4,45.000,3.000,106.890,0.000,0.720,0.180,0.100,1.000,General,0.000,45.000
 Lights Internal Gains Nominal, BEDROOM3.3,LIGHT-BEDROOM,BEDROOM3.3,15.00,0.4,45.000,3.000,106.890,0.000,0.720,0.180,0.100,1.000,General,0.000,45.000
 Lights Internal Gains Nominal, BEDROOM3.4,LIGHT-BEDROOM,BEDROOM3.4,18.00,0.5,54.000,3.000,106.890,0.000,0.720,0.180,0.100,1.000,General,0.000,54.000
 Lights Internal Gains Nominal, BEDROOM3.5,LIGHT-BEDROOM,BEDROOM3.5,26.25,0.7,78.750,3.000,106.890,0.000,0.720,0.180,0.100,1.000,General,0.000,78.750
 Lights Internal Gains Nominal, BEDROOM3.6,LIGHT-BEDROOM,BEDROOM3.6,26.25,0.7,78.750,3.000,106.890,0.000,0.720,0.180,0.100,1.000,General,0.000,78.750
 Lights Internal Gains Nominal, BEDROOM3.7,LIGHT-BEDROOM,BEDROOM3.7,26.25,0.7,78.750,3.000,106.890,0.000,0.720,0.180,0.100,1.000,General,0.000,78.750
 Lights Internal Gains Nominal, BEDROOM3.8,LIGHT-BEDROOM,BEDROOM3.8,26.25,0.7,78.750,3.000,106.890,0.000,0.720,0.180,0.100,1.000,General,0.000,78.750
 Lights Internal Gains Nominal, BEDROOM3.9,LIGHT-BEDROOM,BEDROOM3.9,18.00,0.5,54.000,3.000,106.890,0.000,0.720,0.180,0.100,1.000,General,0.000,54.000
 Lights Internal Gains Nominal, BEDROOM3.10,LIGHT-BEDROOM,BEDROOM3.10,15.00,0.4,45.000,3.000,106.890,0.000,0.720,0.180,0.100,1.000,General,0.000,45.000
 Lights Internal Gains Nominal, BEDROOM3.11,LIGHT-BEDROOM,BEDROOM3.11,15.00,0.4,45.000,3.000,106.890,0.000,0.720,0.180,0.100,1.000,General,0.000,45.000
 Lights Internal Gains Nominal, BEDROOM3.12,LIGHT-BEDROOM,BEDROOM3.12,18.00,0.5,54.000,3.000,106.890,0.000,0.720,0.180,0.100,1.000,General,0.000,54.000
! <ElectricEquipment Internal Gains Nominal>,Name,Schedule Name,Zone Name,Zone Floor Area {m2},# Zone Occupants,Equipment Level {W},Equipment/Floor Area {W/m2},Equipment per person {W/person},Fraction Latent,Fraction Radiant,Fraction Lost,Fraction Convected,End-Use SubCategory,Nominal Minimum Equipment Level {W},Nominal Maximum Equipment Level {W}
 ElectricEquipment Internal Gains Nominal, KITCHEN1.1,EQUIPMENT CHUFANG,KITCHEN1.1,10.80,0.3,46.440,4.300,153.209,0.000,0.250,0.000,0.750,General,0.000,46.440
 ElectricEquipment Internal Gains Nominal, KITCHEN1.2,EQUIPMENT CHUFANG,KITCHEN1.2,10.80,0.3,46.440,4.300,153.209,0.000,0.250,0.000,0.750,General,0.000,46.440
 ElectricEquipment Internal Gains Nominal, KITCHEN1.3,EQUIPMENT CHUFANG,KITCHEN1.3,10.80,0.3,46.440,4.300,153.209,0.000,0.250,0.000,0.750,General,0.000,46.440
 ElectricEquipment Internal Gains Nominal, KITCHEN1.4,EQUIPMENT CHUFANG,KITCHEN1.4,10.80,0.3,46.440,4.300,153.209,0.000,0.250,0.000,0.750,General,0.000,46.440
 ElectricEquipment Internal Gains Nominal, LIVINGROOM1.1,EQUIPMENT-KETING,LIVINGROOM1.1,38.70,1.1,166.410,4.300,153.209,0.000,0.250,0.000,0.750,General,37.609,166.410
 ElectricEquipment Internal Gains Nominal, LIVINGROOM1.2,EQUIPMENT-KETING,LIVINGROOM1.2,38.70,1.1,166.410,4.300,153.209,0.000,0.250,0.000,0.750,General,37.609,166.410
 ElectricEquipment Internal Gains Nominal, LIVINGROOM1.3,EQUIPMENT-KETING,LIVINGROOM1.3,38.70,1.1,166.410,4.300,153.209,0.000,0.250,0.000,0.750,General,37.609,166.410
 ElectricEquipment Internal Gains Nominal, LIVINGROOM1.4,EQUIPMENT-KETING,LIVINGROOM1.4,38.70,1.1,166.410,4.300,153.209,0.000,0.250,0.000,0.750,General,37.609,166.410
 ElectricEquipment Internal Gains Nominal, BEDROOM1.1,EQUIPMENT-BEDROOM,BEDROOM1.1,18.00,0.5,77.400,4.300,153.209,0.000,0.250,0.000,0.750,General,0.000,77.400
 ElectricEquipment Internal Gains Nominal, BEDROOM1.2,EQUIPMENT-BEDROOM,BEDROOM1.2,15.00,0.4,64.500,4.300,153.209,0.000,0.250,0.000,0.750,General,0.000,64.500
 ElectricEquipment Internal Gains Nominal, BEDROOM1.3,EQUIPMENT-BEDROOM,BEDROOM1.3,15.00,0.4,64.500,4.300,153.209,0.000,0.250,0.000,0.750,General,0.000,64.500
 ElectricEquipment Internal Gains Nominal, BEDROOM1.4,EQUIPMENT-BEDROOM,BEDROOM1.4,18.00,0.5,77.400,4.300,153.209,0.000,0.250,0.000,0.750,General,0.000,77.400
 ElectricEquipment Internal Gains Nominal, BEDROOM1.5,EQUIPMENT-BEDROOM,BEDROOM1.5,26.25,0.7,112.875,4.300,153.209,0.000,0.250,0.000,0.750,General,0.000,112.875
 ElectricEquipment Internal Gains Nominal, BEDROOM1.6,EQUIPMENT-BEDROOM,BEDROOM1.6,26.25,0.7,112.875,4.300,153.209,0.000,0.250,0.000,0.750,General,0.000,112.875
 ElectricEquipment Internal Gains Nominal, BEDROOM1.7,EQUIPMENT-BEDROOM,BEDROOM1.7,26.25,0.7,112.875,4.300,153.209,0.000,0.250,0.000,0.750,General,0.000,112.875
 ElectricEquipment Internal Gains Nominal, BEDROOM1.8,EQUIPMENT-BEDROOM,BEDROOM1.8,26.25,0.7,112.875,4.300,153.209,0.000,0.250,0.000,0.750,General,0.000,112.875
 ElectricEquipment Internal Gains Nominal, BEDROOM1.9,EQUIPMENT-BEDROOM,BEDROOM1.9,18.00,0.5,77.400,4.300,153.209,0.000,0.250,0.000,0.750,General,0.000,77.400
 ElectricEquipment Internal Gains Nominal, BEDROOM1.10,EQUIPMENT-BEDROOM,BEDROOM1.10,15.00,0.4,64.500,4.300,153.209,0.000,0.250,0.000,0.750,General,0.000,64.500
 ElectricEquipment Internal Gains Nominal, BEDROOM1.11,EQUIPMENT-BEDROOM,BEDROOM1.11,15.00,0.4,64.500,4.300,153.209,0.000,0.250,0.000,0.750,General,0.000,64.500
 ElectricEquipment Internal Gains Nominal, BEDROOM1.12,EQUIPMENT-BEDROOM,BEDROOM1.12,18.00,0.5,77.400,4.300,153.209,0.000,0.250,0.000,0.750,General,0.000,77.400
 ElectricEquipment Internal Gains Nominal, KITCHEN2.1,EQUIPMENT CHUFANG,KITCHEN2.1,10.80,0.3,46.440,4.300,153.209,0.000,0.250,0.000,0.750,General,0.000,46.440
 ElectricEquipment Internal Gains Nominal, KITCHEN2.2,EQUIPMENT CHUFANG,KITCHEN2.2,10.80,0.3,46.440,4.300,153.209,0.000,0.250,0.000,0.750,General,0.000,46.440
 ElectricEquipment Internal Gains Nominal, KITCHEN2.3,EQUIPMENT CHUFANG,KITCHEN2.3,10.80,0.3,46.440,4.300,153.209,0.000,0.250,0.000,0.750,General,0.000,46.440
 ElectricEquipment Internal Gains Nominal, KITCHEN2.4,EQUIPMENT CHUFANG,KITCHEN2.4,10.80,0.3,46.440,4.300,153.209,0.000,0.250,0.000,0.750,General,0.000,46.440
 ElectricEquipment Internal Gains Nominal, LIVINGROOM2.1,EQUIPMENT-KETING,LIVINGROOM2.1,38.70,1.1,166.410,4.300,153.209,0.000,0.250,0.000,0.750,General,37.609,166.410
 ElectricEquipment Internal Gains Nominal, LIVINGROOM2.2,EQUIPMENT-KETING,LIVINGROOM2.2,38.70,1.1,166.410,4.300,153.209,0.000,0.250,0.000,0.750,General,37.609,166.410
 ElectricEquipment Internal Gains Nominal, LIVINGROOM2.3,EQUIPMENT-KETING,LIVINGROOM2.3,38.70,1.1,166.410,4.300,153.209,0.000,0.250,0.000,0.750,General,37.609,166.410
 ElectricEquipment Internal Gains Nominal, LIVINGROOM2.4,EQUIPMENT-KETING,LIVINGROOM2.4,38.70,1.1,166.410,4.300,153.209,0.000,0.250,0.000,0.750,General,37.609,166.410
 ElectricEquipment Internal Gains Nominal, BEDROOM2.1,EQUIPMENT-BEDROOM,BEDROOM2.1,18.00,0.5,77.400,4.300,153.209,0.000,0.250,0.000,0.750,General,0.000,77.400
 ElectricEquipment Internal Gains Nominal, BEDROOM2.2,EQUIPMENT-BEDROOM,BEDROOM2.2,15.00,0.4,64.500,4.300,153.209,0.000,0.250,0.000,0.750,General,0.000,64.500
 ElectricEquipment Internal Gains Nominal, BEDROOM2.3,EQUIPMENT-BEDROOM,BEDROOM2.3,15.00,0.4,64.500,4.300,153.209,0.000,0.250,0.000,0.750,General,0.000,64.500
 ElectricEquipment Internal Gains Nominal, BEDROOM2.4,EQUIPMENT-BEDROOM,BEDROOM2.4,18.00,0.5,77.400,4.300,153.209,0.000,0.250,0.000,0.750,General,0.000,77.400
 ElectricEquipment Internal Gains Nominal, BEDROOM2.5,EQUIPMENT-BEDROOM,BEDROOM2.5,26.25,0.7,112.875,4.300,153.209,0.000,0.250,0.000,0.750,General,0.000,112.875
 ElectricEquipment Internal Gains Nominal, BEDROOM2.6,EQUIPMENT-BEDROOM,BEDROOM2.6,26.25,0.7,112.875,4.300,153.209,0.000,0.250,0.000,0.750,General,0.000,112.875
 ElectricEquipment Internal Gains Nominal, BEDROOM2.7,EQUIPMENT-BEDROOM,BEDROOM2.7,26.25,0.7,112.875,4.300,153.209,0.000,0.250,0.000,0.750,General,0.000,112.875
 ElectricEquipment Internal Gains Nominal, BEDROOM2.8,EQUIPMENT-BEDROOM,BEDROOM2.8,26.25,0.7,112.875,4.300,153.209,0.000,0.250,0.000,0.750,General,0.000,112.875
 ElectricEquipment Internal Gains Nominal, BEDROOM2.9,EQUIPMENT-BEDROOM,BEDROOM2.9,18.00,0.5,77.400,4.300,153.209,0.000,0.250,0.000,0.750,General,0.000,77.400
 ElectricEquipment Internal Gains Nominal, BEDROOM2.10,EQUIPMENT-BEDROOM,BEDROOM2.10,15.00,0.4,64.500,4.300,153.209,0.000,0.250,0.000,0.750,General,0.000,64.500
 ElectricEquipment Internal Gains Nominal, BEDROOM2.11,EQUIPMENT-BEDROOM,BEDROOM2.11,15.00,0.4,64.500,4.300,153.209,0.000,0.250,0.000,0.750,General,0.000,64.500
 ElectricEquipment Internal Gains Nominal, BEDROOM2.12,EQUIPMENT-BEDROOM,BEDROOM2.12,18.00,0.5,77.400,4.300,153.209,0.000,0.250,0.000,0.750,General,0.000,77.400
 ElectricEquipment Internal Gains Nominal, KITCHEN3.1,EQUIPMENT CHUFANG,KITCHEN3.1,10.80,0.3,46.440,4.300,153.209,0.000,0.250,0.000,0.750,General,0.000,46.440
 ElectricEquipment Internal Gains Nominal, KITCHEN3.2,EQUIPMENT CHUFANG,KITCHEN3.2,10.80,0.3,46.440,4.300,153.209,0.000,0.250,0.000,0.750,General,0.000,46.440
 ElectricEquipment Internal Gains Nominal, KITCHEN3.3,EQUIPMENT CHUFANG,KITCHEN3.3,10.80,0.3,46.440,4.300,153.209,0.000,0.250,0.000,0.750,General,0.000,46.440
 ElectricEquipment Internal Gains Nominal, KITCHEN3.4,EQUIPMENT CHUFANG,KITCHEN3.4,10.80,0.3,46.440,4.300,153.209,0.000,0.250,0.000,0.750,General,0.000,46.440
 ElectricEquipment Internal Gains Nominal, LIVINGROOM3.1,EQUIPMENT-KETING,LIVINGROOM3.1,38.70,1.1,166.410,4.300,153.209,0.000,0.250,0.000,0.750,General,37.609,166.410
 ElectricEquipment Internal Gains Nominal, LIVINGROOM3.2,EQUIPMENT-KETING,LIVINGROOM3.2,38.70,1.1,166.410,4.300,153.209,0.000,0.250,0.000,0.750,General,37.609,166.410
 ElectricEquipment Internal Gains Nominal, LIVINGROOM3.3,EQUIPMENT-KETING,LIVINGROOM3.3,38.70,1.1,166.410,4.300,153.209,0.000,0.250,0.000,0.750,General,37.609,166.410
 ElectricEquipment Internal Gains Nominal, LIVINGROOM3.4,EQUIPMENT-KETING,LIVINGROOM3.4,38.70,1.1,166.410,4.300,153.209,0.000,0.250,0.000,0.750,General,37.609,166.410
 ElectricEquipment Internal Gains Nominal, BEDROOM3.1,EQUIPMENT-BEDROOM,BEDROOM3.1,18.00,0.5,77.400,4.300,153.209,0.000,0.250,0.000,0.750,General,0.000,77.400
 ElectricEquipment Internal Gains Nominal, BEDROOM3.2,EQUIPMENT-BEDROOM,BEDROOM3.2,15.00,0.4,64.500,4.300,153.209,0.000,0.250,0.000,0.750,General,0.000,64.500
 ElectricEquipment Internal Gains Nominal, BEDROOM3.3,EQUIPMENT-BEDROOM,BEDROOM3.3,15.00,0.4,64.500,4.300,153.209,0.000,0.250,0.000,0.750,General,0.000,64.500
 ElectricEquipment Internal Gains Nominal, BEDROOM3.4,EQUIPMENT-BEDROOM,BEDROOM3.4,18.00,0.5,77.400,4.300,153.209,0.000,0.250,0.000,0.750,General,0.000,77.400
 ElectricEquipment Internal Gains Nominal, BEDROOM3.5,EQUIPMENT-BEDROOM,BEDROOM3.5,26.25,0.7,112.875,4.300,153.209,0.000,0.250,0.000,0.750,General,0.000,112.875
 ElectricEquipment Internal Gains Nominal, BEDROOM3.6,EQUIPMENT-BEDROOM,BEDROOM3.6,26.25,0.7,112.875,4.300,153.209,0.000,0.250,0.000,0.750,General,0.000,112.875
 ElectricEquipment Internal Gains Nominal, BEDROOM3.7,EQUIPMENT-BEDROOM,BEDROOM3.7,26.25,0.7,112.875,4.300,153.209,0.000,0.250,0.000,0.750,General,0.000,112.875
 ElectricEquipment Internal Gains Nominal, BEDROOM3.8,EQUIPMENT-BEDROOM,BEDROOM3.8,26.25,0.7,112.875,4.300,153.209,0.000,0.250,0.000,0.750,General,0.000,112.875
 ElectricEquipment Internal Gains Nominal, BEDROOM3.9,EQUIPMENT-BEDROOM,BEDROOM3.9,18.00,0.5,77.400,4.300,153.209,0.000,0.250,0.000,0.750,General,0.000,77.400
 ElectricEquipment Internal Gains Nominal, BEDROOM3.10,EQUIPMENT-BEDROOM,BEDROOM3.10,15.00,0.4,64.500,4.300,153.209,0.000,0.250,0.000,0.750,General,0.000,64.500
 ElectricEquipment Internal Gains Nominal, BEDROOM3.11,EQUIPMENT-BEDROOM,BEDROOM3.11,15.00,0.4,64.500,4.300,153.209,0.000,0.250,0.000,0.750,General,0.000,64.500
 ElectricEquipment Internal Gains Nominal, BEDROOM3.12,EQUIPMENT-BEDROOM,BEDROOM3.12,18.00,0.5,77.400,4.300,153.209,0.000,0.250,0.000,0.750,General,0.000,77.400
! <Shadowing/Sun Position Calculations Annual Simulations>, Calculation Method, Value {days}, Allowable Number Figures in Shadow Overlap {}, Polygon Clipping Algorithm, Sky Diffuse Modeling Algorithm
Shadowing/Sun Position Calculations Annual Simulations,AverageOverDaysInFrequency,20,15000,SutherlandHodgman,SimpleSkyDiffuseModeling
! <ZoneInfiltration Airflow Stats Nominal>,Name,Schedule Name,Zone Name, Zone Floor Area {m2}, # Zone Occupants,Design Volume Flow Rate {m3/s},Volume Flow Rate/Floor Area {m3/s/m2},Volume Flow Rate/Exterior Surface Area {m3/s/m2},ACH - Air Changes per Hour,Equation A - Constant Term Coefficient {},Equation B - Temperature Term Coefficient {1/C},Equation C - Velocity Term Coefficient {s/m}, Equation D - Velocity Squared Term Coefficient {s2/m2}
 ZoneInfiltration Airflow Stats Nominal, KITCHEN1.1,ALWAYS ON,KITCHEN1.1,10.80,0.3,9.000E-003,8.333E-004,N/A,1.000,0.606,3.600E-002,0.118,0.000
 ZoneInfiltration Airflow Stats Nominal, KITCHEN1.2,ALWAYS ON,KITCHEN1.2,10.80,0.3,9.000E-003,8.333E-004,N/A,1.000,0.606,3.600E-002,0.118,0.000
 ZoneInfiltration Airflow Stats Nominal, KITCHEN1.3,ALWAYS ON,KITCHEN1.3,10.80,0.3,9.000E-003,8.333E-004,N/A,1.000,0.606,3.600E-002,0.118,0.000
 ZoneInfiltration Airflow Stats Nominal, KITCHEN1.4,ALWAYS ON,KITCHEN1.4,10.80,0.3,9.000E-003,8.333E-004,N/A,1.000,0.606,3.600E-002,0.118,0.000
 ZoneInfiltration Airflow Stats Nominal, LIVINGROOM1.1,ALWAYS ON,LIVINGROOM1.1,38.70,1.1,3.225E-002,8.333E-004,2.389E-003,1.000,0.606,3.600E-002,0.118,0.000
 ZoneInfiltration Airflow Stats Nominal, LIVINGROOM1.2,ALWAYS ON,LIVINGROOM1.2,38.70,1.1,3.225E-002,8.333E-004,2.389E-003,1.000,0.606,3.600E-002,0.118,0.000
 ZoneInfiltration Airflow Stats Nominal, LIVINGROOM1.3,ALWAYS ON,LIVINGROOM1.3,38.70,1.1,3.225E-002,8.333E-004,2.389E-003,1.000,0.606,3.600E-002,0.118,0.000
 ZoneInfiltration Airflow Stats Nominal, LIVINGROOM1.4,ALWAYS ON,LIVINGROOM1.4,38.70,1.1,3.225E-002,8.333E-004,2.389E-003,1.000,0.606,3.600E-002,0.118,0.000
 ZoneInfiltration Airflow Stats Nominal, BEDROOM1.1,ALWAYS ON,BEDROOM1.1,18.00,0.5,1.500E-002,8.333E-004,5.556E-004,1.000,0.606,3.600E-002,0.118,0.000
 ZoneInfiltration Airflow Stats Nominal, BEDROOM1.2,ALWAYS ON,BEDROOM1.2,15.00,0.4,1.250E-002,8.333E-004,8.333E-004,1.000,0.606,3.600E-002,0.118,0.000
 ZoneInfiltration Airflow Stats Nominal, BEDROOM1.3,ALWAYS ON,BEDROOM1.3,15.00,0.4,1.250E-002,8.333E-004,8.333E-004,1.000,0.606,3.600E-002,0.118,0.000
 ZoneInfiltration Airflow Stats Nominal, BEDROOM1.4,ALWAYS ON,BEDROOM1.4,18.00,0.5,1.500E-002,8.333E-004,5.556E-004,1.000,0.606,3.600E-002,0.118,0.000
 ZoneInfiltration Airflow Stats Nominal, BEDROOM1.5,ALWAYS ON,BEDROOM1.5,26.25,0.7,2.188E-002,8.333E-004,2.083E-003,1.000,0.606,3.600E-002,0.118,0.000
 ZoneInfiltration Airflow Stats Nominal, BEDROOM1.6,ALWAYS ON,BEDROOM1.6,26.25,0.7,2.188E-002,8.333E-004,2.083E-003,1.000,0.606,3.600E-002,0.118,0.000
 ZoneInfiltration Airflow Stats Nominal, BEDROOM1.7,ALWAYS ON,BEDROOM1.7,26.25,0.7,2.188E-002,8.333E-004,2.083E-003,1.000,0.606,3.600E-002,0.118,0.000
 ZoneInfiltration Airflow Stats Nominal, BEDROOM1.8,ALWAYS ON,BEDROOM1.8,26.25,0.7,2.188E-002,8.333E-004,2.083E-003,1.000,0.606,3.600E-002,0.118,0.000
 ZoneInfiltration Airflow Stats Nominal, BEDROOM1.9,ALWAYS ON,BEDROOM1.9,18.00,0.5,1.500E-002,8.333E-004,5.556E-004,1.000,0.606,3.600E-002,0.118,0.000
 ZoneInfiltration Airflow Stats Nominal, BEDROOM1.10,ALWAYS ON,BEDROOM1.10,15.00,0.4,1.250E-002,8.333E-004,8.333E-004,1.000,0.606,3.600E-002,0.118,0.000
 ZoneInfiltration Airflow Stats Nominal, BEDROOM1.11,ALWAYS ON,BEDROOM1.11,15.00,0.4,1.250E-002,8.333E-004,8.333E-004,1.000,0.606,3.600E-002,0.118,0.000
 ZoneInfiltration Airflow Stats Nominal, BEDROOM1.12,ALWAYS ON,BEDROOM1.12,18.00,0.5,1.500E-002,8.333E-004,5.556E-004,1.000,0.606,3.600E-002,0.118,0.000
 ZoneInfiltration Airflow Stats Nominal, KITCHEN2.1,ALWAYS ON,KITCHEN2.1,10.80,0.3,9.000E-003,8.333E-004,N/A,1.000,0.606,3.600E-002,0.118,0.000
 ZoneInfiltration Airflow Stats Nominal, KITCHEN2.2,ALWAYS ON,KITCHEN2.2,10.80,0.3,9.000E-003,8.333E-004,N/A,1.000,0.606,3.600E-002,0.118,0.000
 ZoneInfiltration Airflow Stats Nominal, KITCHEN2.3,ALWAYS ON,KITCHEN2.3,10.80,0.3,9.000E-003,8.333E-004,N/A,1.000,0.606,3.600E-002,0.118,0.000
 ZoneInfiltration Airflow Stats Nominal, KITCHEN2.4,ALWAYS ON,KITCHEN2.4,10.80,0.3,9.000E-003,8.333E-004,N/A,1.000,0.606,3.600E-002,0.118,0.000
 ZoneInfiltration Airflow Stats Nominal, LIVINGROOM2.1,ALWAYS ON,LIVINGROOM2.1,38.70,1.1,3.225E-002,8.333E-004,2.389E-003,1.000,0.606,3.600E-002,0.118,0.000
 ZoneInfiltration Airflow Stats Nominal, LIVINGROOM2.2,ALWAYS ON,LIVINGROOM2.2,38.70,1.1,3.225E-002,8.333E-004,2.389E-003,1.000,0.606,3.600E-002,0.118,0.000
 ZoneInfiltration Airflow Stats Nominal, LIVINGROOM2.3,ALWAYS ON,LIVINGROOM2.3,38.70,1.1,3.225E-002,8.333E-004,2.389E-003,1.000,0.606,3.600E-002,0.118,0.000
 ZoneInfiltration Airflow Stats Nominal, LIVINGROOM2.4,ALWAYS ON,LIVINGROOM2.4,38.70,1.1,3.225E-002,8.333E-004,2.389E-003,1.000,0.606,3.600E-002,0.118,0.000
 ZoneInfiltration Airflow Stats Nominal, BEDROOM2.1,ALWAYS ON,BEDROOM2.1,18.00,0.5,1.500E-002,8.333E-004,5.556E-004,1.000,0.606,3.600E-002,0.118,0.000
 ZoneInfiltration Airflow Stats Nominal, BEDROOM2.2,ALWAYS ON,BEDROOM2.2,15.00,0.4,1.250E-002,8.333E-004,8.333E-004,1.000,0.606,3.600E-002,0.118,0.000
 ZoneInfiltration Airflow Stats Nominal, BEDROOM2.3,ALWAYS ON,BEDROOM2.3,15.00,0.4,1.250E-002,8.333E-004,8.333E-004,1.000,0.606,3.600E-002,0.118,0.000
 ZoneInfiltration Airflow Stats Nominal, BEDROOM2.4,ALWAYS ON,BEDROOM2.4,18.00,0.5,1.500E-002,8.333E-004,5.556E-004,1.000,0.606,3.600E-002,0.118,0.000
 ZoneInfiltration Airflow Stats Nominal, BEDROOM2.5,ALWAYS ON,BEDROOM2.5,26.25,0.7,2.188E-002,8.333E-004,2.083E-003,1.000,0.606,3.600E-002,0.118,0.000
 ZoneInfiltration Airflow Stats Nominal, BEDROOM2.6,ALWAYS ON,BEDROOM2.6,26.25,0.7,2.188E-002,8.333E-004,2.083E-003,1.000,0.606,3.600E-002,0.118,0.000
 ZoneInfiltration Airflow Stats Nominal, BEDROOM2.7,ALWAYS ON,BEDROOM2.7,26.25,0.7,2.188E-002,8.333E-004,2.083E-003,1.000,0.606,3.600E-002,0.118,0.000
 ZoneInfiltration Airflow Stats Nominal, BEDROOM2.8,ALWAYS ON,BEDROOM2.8,26.25,0.7,2.188E-002,8.333E-004,2.083E-003,1.000,0.606,3.600E-002,0.118,0.000
 ZoneInfiltration Airflow Stats Nominal, BEDROOM2.9,ALWAYS ON,BEDROOM2.9,18.00,0.5,1.500E-002,8.333E-004,5.556E-004,1.000,0.606,3.600E-002,0.118,0.000
 ZoneInfiltration Airflow Stats Nominal, BEDROOM2.10,ALWAYS ON,BEDROOM2.10,15.00,0.4,1.250E-002,8.333E-004,8.333E-004,1.000,0.606,3.600E-002,0.118,0.000
 ZoneInfiltration Airflow Stats Nominal, BEDROOM2.11,ALWAYS ON,BEDROOM2.11,15.00,0.4,1.250E-002,8.333E-004,8.333E-004,1.000,0.606,3.600E-002,0.118,0.000
 ZoneInfiltration Airflow Stats Nominal, BEDROOM2.12,ALWAYS ON,BEDROOM2.12,18.00,0.5,1.500E-002,8.333E-004,5.556E-004,1.000,0.606,3.600E-002,0.118,0.000
 ZoneInfiltration Airflow Stats Nominal, KITCHEN3.1,ALWAYS ON,KITCHEN3.1,10.80,0.3,9.000E-003,8.333E-004,8.333E-004,1.000,0.606,3.600E-002,0.118,0.000
 ZoneInfiltration Airflow Stats Nominal, KITCHEN3.2,ALWAYS ON,KITCHEN3.2,10.80,0.3,9.000E-003,8.333E-004,8.333E-004,1.000,0.606,3.600E-002,0.118,0.000
 ZoneInfiltration Airflow Stats Nominal, KITCHEN3.3,ALWAYS ON,KITCHEN3.3,10.80,0.3,9.000E-003,8.333E-004,8.333E-004,1.000,0.606,3.600E-002,0.118,0.000
 ZoneInfiltration Airflow Stats Nominal, KITCHEN3.4,ALWAYS ON,KITCHEN3.4,10.80,0.3,9.000E-003,8.333E-004,8.333E-004,1.000,0.606,3.600E-002,0.118,0.000
 ZoneInfiltration Airflow Stats Nominal, LIVINGROOM3.1,ALWAYS ON,LIVINGROOM3.1,38.70,1.1,3.225E-002,8.333E-004,6.178E-004,1.000,0.606,3.600E-002,0.118,0.000
 ZoneInfiltration Airflow Stats Nominal, LIVINGROOM3.2,ALWAYS ON,LIVINGROOM3.2,38.70,1.1,3.225E-002,8.333E-004,6.178E-004,1.000,0.606,3.600E-002,0.118,0.000
 ZoneInfiltration Airflow Stats Nominal, LIVINGROOM3.3,ALWAYS ON,LIVINGROOM3.3,38.70,1.1,3.225E-002,8.333E-004,6.178E-004,1.000,0.606,3.600E-002,0.118,0.000
 ZoneInfiltration Airflow Stats Nominal, LIVINGROOM3.4,ALWAYS ON,LIVINGROOM3.4,38.70,1.1,3.225E-002,8.333E-004,6.178E-004,1.000,0.606,3.600E-002,0.118,0.000
 ZoneInfiltration Airflow Stats Nominal, BEDROOM3.1,ALWAYS ON,BEDROOM3.1,18.00,0.5,1.500E-002,8.333E-004,3.333E-004,1.000,0.606,3.600E-002,0.118,0.000
 ZoneInfiltration Airflow Stats Nominal, BEDROOM3.2,ALWAYS ON,BEDROOM3.2,15.00,0.4,1.250E-002,8.333E-004,4.167E-004,1.000,0.606,3.600E-002,0.118,0.000
 ZoneInfiltration Airflow Stats Nominal, BEDROOM3.3,ALWAYS ON,BEDROOM3.3,15.00,0.4,1.250E-002,8.333E-004,4.167E-004,1.000,0.606,3.600E-002,0.118,0.000
 ZoneInfiltration Airflow Stats Nominal, BEDROOM3.4,ALWAYS ON,BEDROOM3.4,18.00,0.5,1.500E-002,8.333E-004,3.333E-004,1.000,0.606,3.600E-002,0.118,0.000
 ZoneInfiltration Airflow Stats Nominal, BEDROOM3.5,ALWAYS ON,BEDROOM3.5,26.25,0.7,2.188E-002,8.333E-004,5.952E-004,1.000,0.606,3.600E-002,0.118,0.000
 ZoneInfiltration Airflow Stats Nominal, BEDROOM3.6,ALWAYS ON,BEDROOM3.6,26.25,0.7,2.188E-002,8.333E-004,5.952E-004,1.000,0.606,3.600E-002,0.118,0.000
 ZoneInfiltration Airflow Stats Nominal, BEDROOM3.7,ALWAYS ON,BEDROOM3.7,26.25,0.7,2.188E-002,8.333E-004,5.952E-004,1.000,0.606,3.600E-002,0.118,0.000
 ZoneInfiltration Airflow Stats Nominal, BEDROOM3.8,ALWAYS ON,BEDROOM3.8,26.25,0.7,2.188E-002,8.333E-004,5.952E-004,1.000,0.606,3.600E-002,0.118,0.000
 ZoneInfiltration Airflow Stats Nominal, BEDROOM3.9,ALWAYS ON,BEDROOM3.9,18.00,0.5,1.500E-002,8.333E-004,3.333E-004,1.000,0.606,3.600E-002,0.118,0.000
 ZoneInfiltration Airflow Stats Nominal, BEDROOM3.10,ALWAYS ON,BEDROOM3.10,15.00,0.4,1.250E-002,8.333E-004,4.167E-004,1.000,0.606,3.600E-002,0.118,0.000
 ZoneInfiltration Airflow Stats Nominal, BEDROOM3.11,ALWAYS ON,BEDROOM3.11,15.00,0.4,1.250E-002,8.333E-004,4.167E-004,1.000,0.606,3.600E-002,0.118,0.000
 ZoneInfiltration Airflow Stats Nominal, BEDROOM3.12,ALWAYS ON,BEDROOM3.12,18.00,0.5,1.500E-002,8.333E-004,3.333E-004,1.000,0.606,3.600E-002,0.118,0.000
! <ZoneVentilation Airflow Stats Nominal>,Name,Schedule Name,Zone Name, Zone Floor Area {m2}, # Zone Occupants,Design Volume Flow Rate {m3/s},Volume Flow Rate/Floor Area {m3/s/m2},Volume Flow Rate/person Area {m3/s/person},ACH - Air Changes per Hour,Fan Type {Exhaust;Intake;Natural},Fan Pressure Rise {Pa},Fan Efficiency {},Equation A - Constant Term Coefficient {},Equation B - Temperature Term Coefficient {1/C},Equation C - Velocity Term Coefficient {s/m}, Equation D - Velocity Squared Term Coefficient {s2/m2},Minimum Indoor Temperature{C}/Schedule,Maximum Indoor Temperature{C}/Schedule,Delta Temperature{C}/Schedule,Minimum Outdoor Temperature{C}/Schedule,Maximum Outdoor Temperature{C}/Schedule,Maximum WindSpeed{m/s}
 ZoneVentilation Airflow Stats Nominal, JICHUKITCHEN1.1,JICHUTONGFENGQITA,KITCHEN1.1,10.80,0.3,3.600E-002,3.333E-003,0.119,4.000,Natural,0.000,1.0,0.606,3.600E-002,0.118,0.000,-100.00,100.00,-100.00,-100.00,100.00,40.00
 ZoneVentilation Airflow Stats Nominal, JICHUKITCHEN1.2,JICHUTONGFENGQITA,KITCHEN1.2,10.80,0.3,3.600E-002,3.333E-003,0.119,4.000,Natural,0.000,1.0,0.606,3.600E-002,0.118,0.000,-100.00,100.00,-100.00,-100.00,100.00,40.00
 ZoneVentilation Airflow Stats Nominal, JICHUKITCHEN1.3,JICHUTONGFENGQITA,KITCHEN1.3,10.80,0.3,3.600E-002,3.333E-003,0.119,4.000,Natural,0.000,1.0,0.606,3.600E-002,0.118,0.000,-100.00,100.00,-100.00,-100.00,100.00,40.00
 ZoneVentilation Airflow Stats Nominal, JICHUKITCHEN1.4,JICHUTONGFENGQITA,KITCHEN1.4,10.80,0.3,3.600E-002,3.333E-003,0.119,4.000,Natural,0.000,1.0,0.606,3.600E-002,0.118,0.000,-100.00,100.00,-100.00,-100.00,100.00,40.00
 ZoneVentilation Airflow Stats Nominal, JICHULIVINGROOM1.1,JICHUTONGFENGKETING,LIVINGROOM1.1,38.70,1.1,0.129,3.333E-003,0.119,4.000,Natural,0.000,1.0,0.606,3.600E-002,0.118,0.000,-100.00,100.00,-100.00,-100.00,100.00,40.00
 ZoneVentilation Airflow Stats Nominal, JICHULIVINGROOM1.2,JICHUTONGFENGKETING,LIVINGROOM1.2,38.70,1.1,0.129,3.333E-003,0.119,4.000,Natural,0.000,1.0,0.606,3.600E-002,0.118,0.000,-100.00,100.00,-100.00,-100.00,100.00,40.00
 ZoneVentilation Airflow Stats Nominal, JICHULIVINGROOM1.3,JICHUTONGFENGKETING,LIVINGROOM1.3,38.70,1.1,0.129,3.333E-003,0.119,4.000,Natural,0.000,1.0,0.606,3.600E-002,0.118,0.000,-100.00,100.00,-100.00,-100.00,100.00,40.00
 ZoneVentilation Airflow Stats Nominal, JICHULIVINGROOM1.4,JICHUTONGFENGKETING,LIVINGROOM1.4,38.70,1.1,0.129,3.333E-003,0.119,4.000,Natural,0.000,1.0,0.606,3.600E-002,0.118,0.000,-100.00,100.00,-100.00,-100.00,100.00,40.00
 ZoneVentilation Airflow Stats Nominal, JICHUBEDROOM1.1,JICHUTONGFENGBEDROOM,BEDROOM1.1,18.00,0.5,6.000E-002,3.333E-003,0.119,4.000,Natural,0.000,1.0,0.606,3.600E-002,0.118,0.000,-100.00,100.00,-100.00,-100.00,100.00,40.00
 ZoneVentilation Airflow Stats Nominal, JICHUBEDROOM1.2,JICHUTONGFENGBEDROOM,BEDROOM1.2,15.00,0.4,5.000E-002,3.333E-003,0.119,4.000,Natural,0.000,1.0,0.606,3.600E-002,0.118,0.000,-100.00,100.00,-100.00,-100.00,100.00,40.00
 ZoneVentilation Airflow Stats Nominal, JICHUBEDROOM1.3,JICHUTONGFENGBEDROOM,BEDROOM1.3,15.00,0.4,5.000E-002,3.333E-003,0.119,4.000,Natural,0.000,1.0,0.606,3.600E-002,0.118,0.000,-100.00,100.00,-100.00,-100.00,100.00,40.00
 ZoneVentilation Airflow Stats Nominal, JICHUBEDROOM1.4,JICHUTONGFENGBEDROOM,BEDROOM1.4,18.00,0.5,6.000E-002,3.333E-003,0.119,4.000,Natural,0.000,1.0,0.606,3.600E-002,0.118,0.000,-100.00,100.00,-100.00,-100.00,100.00,40.00
 ZoneVentilation Airflow Stats Nominal, JICHUBEDROOM1.5,JICHUTONGFENGBEDROOM,BEDROOM1.5,26.25,0.7,8.750E-002,3.333E-003,0.119,4.000,Natural,0.000,1.0,0.606,3.600E-002,0.118,0.000,-100.00,100.00,-100.00,-100.00,100.00,40.00
 ZoneVentilation Airflow Stats Nominal, JICHUBEDROOM1.6,JICHUTONGFENGBEDROOM,BEDROOM1.6,26.25,0.7,8.750E-002,3.333E-003,0.119,4.000,Natural,0.000,1.0,0.606,3.600E-002,0.118,0.000,-100.00,100.00,-100.00,-100.00,100.00,40.00
 ZoneVentilation Airflow Stats Nominal, JICHUBEDROOM1.7,JICHUTONGFENGBEDROOM,BEDROOM1.7,26.25,0.7,8.750E-002,3.333E-003,0.119,4.000,Natural,0.000,1.0,0.606,3.600E-002,0.118,0.000,-100.00,100.00,-100.00,-100.00,100.00,40.00
 ZoneVentilation Airflow Stats Nominal, JICHUBEDROOM1.8,JICHUTONGFENGBEDROOM,BEDROOM1.8,26.25,0.7,8.750E-002,3.333E-003,0.119,4.000,Natural,0.000,1.0,0.606,3.600E-002,0.118,0.000,-100.00,100.00,-100.00,-100.00,100.00,40.00
 ZoneVentilation Airflow Stats Nominal, JICHUBEDROOM1.9,JICHUTONGFENGBEDROOM,BEDROOM1.9,18.00,0.5,6.000E-002,3.333E-003,0.119,4.000,Natural,0.000,1.0,0.606,3.600E-002,0.118,0.000,-100.00,100.00,-100.00,-100.00,100.00,40.00
 ZoneVentilation Airflow Stats Nominal, JICHUBEDROOM1.10,JICHUTONGFENGBEDROOM,BEDROOM1.10,15.00,0.4,5.000E-002,3.333E-003,0.119,4.000,Natural,0.000,1.0,0.606,3.600E-002,0.118,0.000,-100.00,100.00,-100.00,-100.00,100.00,40.00
 ZoneVentilation Airflow Stats Nominal, JICHUBEDROOM1.11,JICHUTONGFENGBEDROOM,BEDROOM1.11,15.00,0.4,5.000E-002,3.333E-003,0.119,4.000,Natural,0.000,1.0,0.606,3.600E-002,0.118,0.000,-100.00,100.00,-100.00,-100.00,100.00,40.00
 ZoneVentilation Airflow Stats Nominal, JICHUBEDROOM1.12,JICHUTONGFENGBEDROOM,BEDROOM1.12,18.00,0.5,6.000E-002,3.333E-003,0.119,4.000,Natural,0.000,1.0,0.606,3.600E-002,0.118,0.000,-100.00,100.00,-100.00,-100.00,100.00,40.00
 ZoneVentilation Airflow Stats Nominal, JICHUKITCHEN2.1,JICHUTONGFENGQITA,KITCHEN2.1,10.80,0.3,3.600E-002,3.333E-003,0.119,4.000,Natural,0.000,1.0,0.606,3.600E-002,0.118,0.000,-100.00,100.00,-100.00,-100.00,100.00,40.00
 ZoneVentilation Airflow Stats Nominal, JICHUKITCHEN2.2,JICHUTONGFENGQITA,KITCHEN2.2,10.80,0.3,3.600E-002,3.333E-003,0.119,4.000,Natural,0.000,1.0,0.606,3.600E-002,0.118,0.000,-100.00,100.00,-100.00,-100.00,100.00,40.00
 ZoneVentilation Airflow Stats Nominal, JICHUKITCHEN2.3,JICHUTONGFENGQITA,KITCHEN2.3,10.80,0.3,3.600E-002,3.333E-003,0.119,4.000,Natural,0.000,1.0,0.606,3.600E-002,0.118,0.000,-100.00,100.00,-100.00,-100.00,100.00,40.00
 ZoneVentilation Airflow Stats Nominal, JICHUKITCHEN2.4,JICHUTONGFENGQITA,KITCHEN2.4,10.80,0.3,3.600E-002,3.333E-003,0.119,4.000,Natural,0.000,1.0,0.606,3.600E-002,0.118,0.000,-100.00,100.00,-100.00,-100.00,100.00,40.00
 ZoneVentilation Airflow Stats Nominal, JICHULIVINGROOM2.1,JICHUTONGFENGKETING,LIVINGROOM2.1,38.70,1.1,0.129,3.333E-003,0.119,4.000,Natural,0.000,1.0,0.606,3.600E-002,0.118,0.000,-100.00,100.00,-100.00,-100.00,100.00,40.00
 ZoneVentilation Airflow Stats Nominal, JICHULIVINGROOM2.2,JICHUTONGFENGKETING,LIVINGROOM2.2,38.70,1.1,0.129,3.333E-003,0.119,4.000,Natural,0.000,1.0,0.606,3.600E-002,0.118,0.000,-100.00,100.00,-100.00,-100.00,100.00,40.00
 ZoneVentilation Airflow Stats Nominal, JICHULIVINGROOM2.3,JICHUTONGFENGKETING,LIVINGROOM2.3,38.70,1.1,0.129,3.333E-003,0.119,4.000,Natural,0.000,1.0,0.606,3.600E-002,0.118,0.000,-100.00,100.00,-100.00,-100.00,100.00,40.00
 ZoneVentilation Airflow Stats Nominal, JICHULIVINGROOM2.4,JICHUTONGFENGKETING,LIVINGROOM2.4,38.70,1.1,0.129,3.333E-003,0.119,4.000,Natural,0.000,1.0,0.606,3.600E-002,0.118,0.000,-100.00,100.00,-100.00,-100.00,100.00,40.00
 ZoneVentilation Airflow Stats Nominal, JICHUBEDROOM2.1,JICHUTONGFENGBEDROOM,BEDROOM2.1,18.00,0.5,6.000E-002,3.333E-003,0.119,4.000,Natural,0.000,1.0,0.606,3.600E-002,0.118,0.000,-100.00,100.00,-100.00,-100.00,100.00,40.00
 ZoneVentilation Airflow Stats Nominal, JICHUBEDROOM2.2,JICHUTONGFENGBEDROOM,BEDROOM2.2,15.00,0.4,5.000E-002,3.333E-003,0.119,4.000,Natural,0.000,1.0,0.606,3.600E-002,0.118,0.000,-100.00,100.00,-100.00,-100.00,100.00,40.00
 ZoneVentilation Airflow Stats Nominal, JICHUBEDROOM2.3,JICHUTONGFENGBEDROOM,BEDROOM2.3,15.00,0.4,5.000E-002,3.333E-003,0.119,4.000,Natural,0.000,1.0,0.606,3.600E-002,0.118,0.000,-100.00,100.00,-100.00,-100.00,100.00,40.00
 ZoneVentilation Airflow Stats Nominal, JICHUBEDROOM2.4,JICHUTONGFENGBEDROOM,BEDROOM2.4,18.00,0.5,6.000E-002,3.333E-003,0.119,4.000,Natural,0.000,1.0,0.606,3.600E-002,0.118,0.000,-100.00,100.00,-100.00,-100.00,100.00,40.00
 ZoneVentilation Airflow Stats Nominal, JICHUBEDROOM2.5,JICHUTONGFENGBEDROOM,BEDROOM2.5,26.25,0.7,8.750E-002,3.333E-003,0.119,4.000,Natural,0.000,1.0,0.606,3.600E-002,0.118,0.000,-100.00,100.00,-100.00,-100.00,100.00,40.00
 ZoneVentilation Airflow Stats Nominal, JICHUBEDROOM2.6,JICHUTONGFENGBEDROOM,BEDROOM2.6,26.25,0.7,8.750E-002,3.333E-003,0.119,4.000,Natural,0.000,1.0,0.606,3.600E-002,0.118,0.000,-100.00,100.00,-100.00,-100.00,100.00,40.00
 ZoneVentilation Airflow Stats Nominal, JICHUBEDROOM2.7,JICHUTONGFENGBEDROOM,BEDROOM2.7,26.25,0.7,8.750E-002,3.333E-003,0.119,4.000,Natural,0.000,1.0,0.606,3.600E-002,0.118,0.000,-100.00,100.00,-100.00,-100.00,100.00,40.00
 ZoneVentilation Airflow Stats Nominal, JICHUBEDROOM2.8,JICHUTONGFENGBEDROOM,BEDROOM2.8,26.25,0.7,8.750E-002,3.333E-003,0.119,4.000,Natural,0.000,1.0,0.606,3.600E-002,0.118,0.000,-100.00,100.00,-100.00,-100.00,100.00,40.00
 ZoneVentilation Airflow Stats Nominal, JICHUBEDROOM2.9,JICHUTONGFENGBEDROOM,BEDROOM2.9,18.00,0.5,6.000E-002,3.333E-003,0.119,4.000,Natural,0.000,1.0,0.606,3.600E-002,0.118,0.000,-100.00,100.00,-100.00,-100.00,100.00,40.00
 ZoneVentilation Airflow Stats Nominal, JICHUBEDROOM2.10,JICHUTONGFENGBEDROOM,BEDROOM2.10,15.00,0.4,5.000E-002,3.333E-003,0.119,4.000,Natural,0.000,1.0,0.606,3.600E-002,0.118,0.000,-100.00,100.00,-100.00,-100.00,100.00,40.00
 ZoneVentilation Airflow Stats Nominal, JICHUBEDROOM2.11,JICHUTONGFENGBEDROOM,BEDROOM2.11,15.00,0.4,5.000E-002,3.333E-003,0.119,4.000,Natural,0.000,1.0,0.606,3.600E-002,0.118,0.000,-100.00,100.00,-100.00,-100.00,100.00,40.00
 ZoneVentilation Airflow Stats Nominal, JICHUBEDROOM2.12,JICHUTONGFENGBEDROOM,BEDROOM2.12,18.00,0.5,6.000E-002,3.333E-003,0.119,4.000,Natural,0.000,1.0,0.606,3.600E-002,0.118,0.000,-100.00,100.00,-100.00,-100.00,100.00,40.00
 ZoneVentilation Airflow Stats Nominal, JICHUKITCHEN3.1,JICHUTONGFENGQITA,KITCHEN3.1,10.80,0.3,3.600E-002,3.333E-003,0.119,4.000,Natural,0.000,1.0,0.606,3.600E-002,0.118,0.000,-100.00,100.00,-100.00,-100.00,100.00,40.00
 ZoneVentilation Airflow Stats Nominal, JICHUKITCHEN3.2,JICHUTONGFENGQITA,KITCHEN3.2,10.80,0.3,3.600E-002,3.333E-003,0.119,4.000,Natural,0.000,1.0,0.606,3.600E-002,0.118,0.000,-100.00,100.00,-100.00,-100.00,100.00,40.00
 ZoneVentilation Airflow Stats Nominal, JICHUKITCHEN3.3,JICHUTONGFENGQITA,KITCHEN3.3,10.80,0.3,3.600E-002,3.333E-003,0.119,4.000,Natural,0.000,1.0,0.606,3.600E-002,0.118,0.000,-100.00,100.00,-100.00,-100.00,100.00,40.00
 ZoneVentilation Airflow Stats Nominal, JICHUKITCHEN3.4,JICHUTONGFENGQITA,KITCHEN3.4,10.80,0.3,3.600E-002,3.333E-003,0.119,4.000,Natural,0.000,1.0,0.606,3.600E-002,0.118,0.000,-100.00,100.00,-100.00,-100.00,100.00,40.00
 ZoneVentilation Airflow Stats Nominal, JICHULIVINGROOM3.1,JICHUTONGFENGKETING,LIVINGROOM3.1,38.70,1.1,0.129,3.333E-003,0.119,4.000,Natural,0.000,1.0,0.606,3.600E-002,0.118,0.000,-100.00,100.00,-100.00,-100.00,100.00,40.00
 ZoneVentilation Airflow Stats Nominal, JICHULIVINGROOM3.2,JICHUTONGFENGKETING,LIVINGROOM3.2,38.70,1.1,0.129,3.333E-003,0.119,4.000,Natural,0.000,1.0,0.606,3.600E-002,0.118,0.000,-100.00,100.00,-100.00,-100.00,100.00,40.00
 ZoneVentilation Airflow Stats Nominal, JICHULIVINGROOM3.3,JICHUTONGFENGKETING,LIVINGROOM3.3,38.70,1.1,0.129,3.333E-003,0.119,4.000,Natural,0.000,1.0,0.606,3.600E-002,0.118,0.000,-100.00,100.00,-100.00,-100.00,100.00,40.00
 ZoneVentilation Airflow Stats Nominal, JICHULIVINGROOM3.4,JICHUTONGFENGKETING,LIVINGROOM3.4,38.70,1.1,0.129,3.333E-003,0.119,4.000,Natural,0.000,1.0,0.606,3.600E-002,0.118,0.000,-100.00,100.00,-100.00,-100.00,100.00,40.00
 ZoneVentilation Airflow Stats Nominal, JICHUBEDROOM3.1,JICHUTONGFENGBEDROOM,BEDROOM3.1,18.00,0.5,6.000E-002,3.333E-003,0.119,4.000,Natural,0.000,1.0,0.606,3.600E-002,0.118,0.000,-100.00,100.00,-100.00,-100.00,100.00,40.00
 ZoneVentilation Airflow Stats Nominal, JICHUBEDROOM3.2,JICHUTONGFENGBEDROOM,BEDROOM3.2,15.00,0.4,5.000E-002,3.333E-003,0.119,4.000,Natural,0.000,1.0,0.606,3.600E-002,0.118,0.000,-100.00,100.00,-100.00,-100.00,100.00,40.00
 ZoneVentilation Airflow Stats Nominal, JICHUBEDROOM3.3,JICHUTONGFENGBEDROOM,BEDROOM3.3,15.00,0.4,5.000E-002,3.333E-003,0.119,4.000,Natural,0.000,1.0,0.606,3.600E-002,0.118,0.000,-100.00,100.00,-100.00,-100.00,100.00,40.00
[...]
 ZoneVentilation Airflow Stats Nominal, LIVINGROOM2.2,TONGFENGCISHUBIANLIANG,LIVINGROOM2.2,38.70,1.1,0.114,2.944E-003,0.105,3.533,Natural,0.000,1.0,0.606,3.600E-002,0.118,0.000,-100.00,100.00,-100.00,15.37,28.78,40.00
 ZoneVentilation Airflow Stats Nominal, LIVINGROOM2.3,TONGFENGCISHUBIANLIANG,LIVINGROOM2.3,38.70,1.1,0.114,2.944E-003,0.105,3.533,Natural,0.000,1.0,0.606,3.600E-002,0.118,0.000,-100.00,100.00,-100.00,15.37,28.78,40.00
 ZoneVentilation Airflow Stats Nominal, LIVINGROOM2.4,TONGFENGCISHUBIANLIANG,LIVINGROOM2.4,38.70,1.1,0.114,2.944E-003,0.105,3.533,Natural,0.000,1.0,0.606,3.600E-002,0.118,0.000,-100.00,100.00,-100.00,15.37,28.78,40.00
 ZoneVentilation Airflow Stats Nominal, BEDROOM2.1,TONGFENGCISHUBIANLIANG,BEDROOM2.1,18.00,0.5,5.300E-002,2.944E-003,0.105,3.533,Natural,0.000,1.0,0.606,3.600E-002,0.118,0.000,-100.00,100.00,-100.00,15.37,28.78,40.00
 ZoneVentilation Airflow Stats Nominal, BEDROOM2.2,TONGFENGCISHUBIANLIANG,BEDROOM2.2,15.00,0.4,4.417E-002,2.944E-003,0.105,3.533,Natural,0.000,1.0,0.606,3.600E-002,0.118,0.000,-100.00,100.00,-100.00,15.37,28.78,40.00
 ZoneVentilation Airflow Stats Nominal, BEDROOM2.3,TONGFENGCISHUBIANLIANG,BEDROOM2.3,15.00,0.4,4.417E-002,2.944E-003,0.105,3.533,Natural,0.000,1.0,0.606,3.600E-002,0.118,0.000,-100.00,100.00,-100.00,15.37,28.78,40.00
 ZoneVentilation Airflow Stats Nominal, BEDROOM2.4,TONGFENGCISHUBIANLIANG,BEDROOM2.4,18.00,0.5,5.300E-002,2.944E-003,0.105,3.533,Natural,0.000,1.0,0.606,3.600E-002,0.118,0.000,-100.00,100.00,-100.00,15.37,28.78,40.00
 ZoneVentilation Airflow Stats Nominal, BEDROOM2.5,TONGFENGCISHUBIANLIANG,BEDROOM2.5,26.25,0.7,7.729E-002,2.944E-003,0.105,3.533,Natural,0.000,1.0,0.606,3.600E-002,0.118,0.000,-100.00,100.00,-100.00,15.37,28.78,40.00
 ZoneVentilation Airflow Stats Nominal, BEDROOM2.6,TONGFENGCISHUBIANLIANG,BEDROOM2.6,26.25,0.7,7.729E-002,2.944E-003,0.105,3.533,Natural,0.000,1.0,0.606,3.600E-002,0.118,0.000,-100.00,100.00,-100.00,15.37,28.78,40.00
 ZoneVentilation Airflow Stats Nominal, BEDROOM2.7,TONGFENGCISHUBIANLIANG,BEDROOM2.7,26.25,0.7,7.729E-002,2.944E-003,0.105,3.533,Natural,0.000,1.0,0.606,3.600E-002,0.118,0.000,-100.00,100.00,-100.00,15.37,28.78,40.00
 ZoneVentilation Airflow Stats Nominal, BEDROOM2.8,TONGFENGCISHUBIANLIANG,BEDROOM2.8,26.25,0.7,7.729E-002,2.944E-003,0.105,3.533,Natural,0.000,1.0,0.606,3.600E-002,0.118,0.000,-100.00,100.00,-100.00,15.37,28.78,40.00
 ZoneVentilation Airflow Stats Nominal, BEDROOM2.9,TONGFENGCISHUBIANLIANG,BEDROOM2.9,18.00,0.5,5.300E-002,2.944E-003,0.105,3.533,Natural,0.000,1.0,0.606,3.600E-002,0.118,0.000,-100.00,100.00,-100.00,15.37,28.78,40.00
 ZoneVentilation Airflow Stats Nominal, BEDROOM2.10,TONGFENGCISHUBIANLIANG,BEDROOM2.10,15.00,0.4,4.417E-002,2.944E-003,0.105,3.533,Natural,0.000,1.0,0.606,3.600E-002,0.118,0.000,-100.00,100.00,-100.00,15.37,28.78,40.00
 ZoneVentilation Airflow Stats Nominal, BEDROOM2.11,TONGFENGCISHUBIANLIANG,BEDROOM2.11,15.00,0.4,4.417E-002,2.944E-003,0.105,3.533,Natural,0.000,1.0,0.606,3.600E-002,0.118,0.000,-100.00,100.00,-100.00,15.37,28.78,40.00
 ZoneVentilation Airflow Stats Nominal, BEDROOM2.12,TONGFENGCISHUBIANLIANG,BEDROOM2.12,18.00,0.5,5.300E-002,2.944E-003,0.105,3.533,Natural,0.000,1.0,0.606,3.600E-002,0.118,0.000,-100.00,100.00,-100.00,15.37,28.78,40.00
 ZoneVentilation Airflow Stats Nominal, KITCHEN3.1,TONGFENGCISHUBIANLIANG,KITCHEN3.1,10.80,0.3,3.180E-002,2.944E-003,0.105,3.533,Natural,0.000,1.0,0.606,3.600E-002,0.118,0.000,-100.00,100.00,-100.00,15.37,28.78,40.00
 ZoneVentilation Airflow Stats Nominal, KITCHEN3.2,TONGFENGCISHUBIANLIANG,KITCHEN3.2,10.80,0.3,3.180E-002,2.944E-003,0.105,3.533,Natural,0.000,1.0,0.606,3.600E-002,0.118,0.000,-100.00,100.00,-100.00,15.37,28.78,40.00
 ZoneVentilation Airflow Stats Nominal, KITCHEN3.3,TONGFENGCISHUBIANLIANG,KITCHEN3.3,10.80,0.3,3.180E-002,2.944E-003,0.105,3.533,Natural,0.000,1.0,0.606,3.600E-002,0.118,0.000,-100.00,100.00,-100.00,15.37,28.78,40.00
 ZoneVentilation Airflow Stats Nominal, KITCHEN3.4,TONGFENGCISHUBIANLIANG,KITCHEN3.4,10.80,0.3,3.180E-002,2.944E-003,0.105,3.533,Natural,0.000,1.0,0.606,3.600E-002,0.118,0.000,-100.00,100.00,-100.00,15.37,28.78,40.00
 ZoneVentilation Airflow Stats Nominal, LIVINGROOM3.1,TONGFENGCISHUBIANLIANG,LIVINGROOM3.1,38.70,1.1,0.114,2.944E-003,0.105,3.533,Natural,0.000,1.0,0.606,3.600E-002,0.118,0.000,-100.00,100.00,-100.00,15.37,28.78,40.00
 ZoneVentilation Airflow Stats Nominal, LIVINGROOM3.2,TONGFENGCISHUBIANLIANG,LIVINGROOM3.2,38.70,1.1,0.114,2.944E-003,0.105,3.533,Natural,0.000,1.0,0.606,3.600E-002,0.118,0.000,-100.00,100.00,-100.00,15.37,28.78,40.00
 ZoneVentilation Airflow Stats Nominal, LIVINGROOM3.3,TONGFENGCISHUBIANLIANG,LIVINGROOM3.3,38.70,1.1,0.114,2.944E-003,0.105,3.533,Natural,0.000,1.0,0.606,3.600E-002,0.118,0.000,-100.00,100.00,-100.00,15.37,28.78,40.00
 ZoneVentilation Airflow Stats Nominal, LIVINGROOM3.4,TONGFENGCISHUBIANLIANG,LIVINGROOM3.4,38.70,1.1,0.114,2.944E-003,0.105,3.533,Natural,0.000,1.0,0.606,3.600E-002,0.118,0.000,-100.00,100.00,-100.00,15.37,28.78,40.00
 ZoneVentilation Airflow Stats Nominal, BEDROOM3.1,TONGFENGCISHUBIANLIANG,BEDROOM3.1,18.00,0.5,5.300E-002,2.944E-003,0.105,3.533,Natural,0.000,1.0,0.606,3.600E-002,0.118,0.000,-100.00,100.00,-100.00,15.37,28.78,40.00
 ZoneVentilation Airflow Stats Nominal, BEDROOM3.2,TONGFENGCISHUBIANLIANG,BEDROOM3.2,15.00,0.4,4.417E-002,2.944E-003,0.105,3.533,Natural,0.000,1.0,0.606,3.600E-002,0.118,0.000,-100.00,100.00,-100.00,15.37,28.78,40.00
 ZoneVentilation Airflow Stats Nominal, BEDROOM3.3,TONGFENGCISHUBIANLIANG,BEDROOM3.3,15.00,0.4,4.417E-002,2.944E-003,0.105,3.533,Natural,0.000,1.0,0.606,3.600E-002,0.118,0.000,-100.00,100.00,-100.00,15.37,28.78,40.00
 ZoneVentilation Airflow Stats Nominal, BEDROOM3.4,TONGFENGCISHUBIANLIANG,BEDROOM3.4,18.00,0.5,5.300E-002,2.944E-003,0.105,3.533,Natural,0.000,1.0,0.606,3.600E-002,0.118,0.000,-100.00,100.00,-100.00,15.37,28.78,40.00
 ZoneVentilation Airflow Stats Nominal, BEDROOM3.5,TONGFENGCISHUBIANLIANG,BEDROOM3.5,26.25,0.7,7.729E-002,2.944E-003,0.105,3.533,Natural,0.000,1.0,0.606,3.600E-002,0.118,0.000,-100.00,100.00,-100.00,15.37,28.78,40.00
 ZoneVentilation Airflow Stats Nominal, BEDROOM3.6,TONGFENGCISHUBIANLIANG,BEDROOM3.6,26.25,0.7,7.729E-002,2.944E-003,0.105,3.533,Natural,0.000,1.0,0.606,3.600E-002,0.118,0.000,-100.00,100.00,-100.00,15.37,28.78,40.00
 ZoneVentilation Airflow Stats Nominal, BEDROOM3.7,TONGFENGCISHUBIANLIANG,BEDROOM3.7,26.25,0.7,7.729E-002,2.944E-003,0.105,3.533,Natural,0.000,1.0,0.606,3.600E-002,0.118,0.000,-100.00,100.00,-100.00,15.37,28.78,40.00
 ZoneVentilation Airflow Stats Nominal, BEDROOM3.8,TONGFENGCISHUBIANLIANG,BEDROOM3.8,26.25,0.7,7.729E-002,2.944E-003,0.105,3.533,Natural,0.000,1.0,0.606,3.600E-002,0.118,0.000,-100.00,100.00,-100.00,15.37,28.78,40.00
 ZoneVentilation Airflow Stats Nominal, BEDROOM3.9,TONGFENGCISHUBIANLIANG,BEDROOM3.9,18.00,0.5,5.300E-002,2.944E-003,0.105,3.533,Natural,0.000,1.0,0.606,3.600E-002,0.118,0.000,-100.00,100.00,-100.00,15.37,28.78,40.00
 ZoneVentilation Airflow Stats Nominal, BEDROOM3.10,TONGFENGCISHUBIANLIANG,BEDROOM3.10,15.00,0.4,4.417E-002,2.944E-003,0.105,3.533,Natural,0.000,1.0,0.606,3.600E-002,0.118,0.000,-100.00,100.00,-100.00,15.37,28.78,40.00
 ZoneVentilation Airflow Stats Nominal, BEDROOM3.11,TONGFENGCISHUBIANLIANG,BEDROOM3.11,15.00,0.4,4.417E-002,2.944E-003,0.105,3.533,Natural,0.000,1.0,0.606,3.600E-002,0.118,0.000,-100.00,100.00,-100.00,15.37,28.78,40.00
 ZoneVentilation Airflow Stats Nominal, BEDROOM3.12,TONGFENGCISHUBIANLIANG,BEDROOM3.12,18.00,0.5,5.300E-002,2.944E-003,0.105,3.533,Natural,0.000,1.0,0.606,3.600E-002,0.118,0.000,-100.00,100.00,-100.00,15.37,28.78,40.00
! <AirFlow Model>, Simple
 AirFlow Model, Simple
! <RoomAir Model>, Zone Name, Mixing/Mundt/UCSDDV/UCSDCV/UCSDUFI/UCSDUFE/User Defined
RoomAir Model,KITCHEN1.1,Mixing/Well-Stirred
RoomAir Model,BEDROOM1.4,Mixing/Well-Stirred
RoomAir Model,KITCHEN1.2,Mixing/Well-Stirred
RoomAir Model,LIVINGROOM1.2,Mixing/Well-Stirred
RoomAir Model,BEDROOM1.7,Mixing/Well-Stirred
RoomAir Model,LIVINGROOM1.3,Mixing/Well-Stirred
RoomAir Model,BEDROOM1.9,Mixing/Well-Stirred
RoomAir Model,BEDROOM1.10,Mixing/Well-Stirred
RoomAir Model,BEDROOM1.11,Mixing/Well-Stirred
RoomAir Model,BEDROOM1.12,Mixing/Well-Stirred
RoomAir Model,STAIRCASE1.1,Mixing/Well-Stirred
RoomAir Model,KITCHEN1.3,Mixing/Well-Stirred
RoomAir Model,KITCHEN1.4,Mixing/Well-Stirred
RoomAir Model,LIVINGROOM1.4,Mixing/Well-Stirred
RoomAir Model,BEDROOM1.6,Mixing/Well-Stirred
RoomAir Model,BEDROOM1.8,Mixing/Well-Stirred
RoomAir Model,BEDROOM1.3,Mixing/Well-Stirred
RoomAir Model,BEDROOM1.2,Mixing/Well-Stirred
RoomAir Model,BEDROOM1.1,Mixing/Well-Stirred
RoomAir Model,LIVINGROOM1.1,Mixing/Well-Stirred
RoomAir Model,BEDROOM1.5,Mixing/Well-Stirred
RoomAir Model,LIVINGROOM2.4,Mixing/Well-Stirred
RoomAir Model,BEDROOM2.5,Mixing/Well-Stirred
RoomAir Model,LIVINGROOM2.1,Mixing/Well-Stirred
RoomAir Model,BEDROOM2.11,Mixing/Well-Stirred
RoomAir Model,BEDROOM2.10,Mixing/Well-Stirred
RoomAir Model,BEDROOM2.9,Mixing/Well-Stirred
RoomAir Model,LIVINGROOM2.3,Mixing/Well-Stirred
RoomAir Model,BEDROOM2.7,Mixing/Well-Stirred
RoomAir Model,LIVINGROOM2.2,Mixing/Well-Stirred
RoomAir Model,BEDROOM2.2,Mixing/Well-Stirred
RoomAir Model,BEDROOM2.8,Mixing/Well-Stirred
RoomAir Model,BEDROOM2.3,Mixing/Well-Stirred
RoomAir Model,BEDROOM2.1,Mixing/Well-Stirred
RoomAir Model,BEDROOM2.4,Mixing/Well-Stirred
RoomAir Model,BEDROOM2.6,Mixing/Well-Stirred
RoomAir Model,KITCHEN2.1,Mixing/Well-Stirred
RoomAir Model,KITCHEN2.4,Mixing/Well-Stirred
RoomAir Model,KITCHEN2.3,Mixing/Well-Stirred
RoomAir Model,STAIRCASE2.1,Mixing/Well-Stirred
RoomAir Model,BEDROOM2.12,Mixing/Well-Stirred
RoomAir Model,KITCHEN2.2,Mixing/Well-Stirred
RoomAir Model,LIVINGROOM3.4,Mixing/Well-Stirred
RoomAir Model,BEDROOM3.5,Mixing/Well-Stirred
RoomAir Model,LIVINGROOM3.1,Mixing/Well-Stirred
RoomAir Model,BEDROOM3.11,Mixing/Well-Stirred
RoomAir Model,BEDROOM3.10,Mixing/Well-Stirred
RoomAir Model,BEDROOM3.9,Mixing/Well-Stirred
RoomAir Model,LIVINGROOM3.3,Mixing/Well-Stirred
RoomAir Model,KITCHEN3.4,Mixing/Well-Stirred
RoomAir Model,KITCHEN3.1,Mixing/Well-Stirred
RoomAir Model,BEDROOM3.4,Mixing/Well-Stirred
RoomAir Model,BEDROOM3.6,Mixing/Well-Stirred
RoomAir Model,KITCHEN3.3,Mixing/Well-Stirred
RoomAir Model,KITCHEN3.2,Mixing/Well-Stirred
RoomAir Model,BEDROOM3.12,Mixing/Well-Stirred
RoomAir Model,STAIRCASE3.1,Mixing/Well-Stirred
RoomAir Model,BEDROOM3.3,Mixing/Well-Stirred
RoomAir Model,BEDROOM3.1,Mixing/Well-Stirred
RoomAir Model,BEDROOM3.8,Mixing/Well-Stirred
RoomAir Model,BEDROOM3.2,Mixing/Well-Stirred
RoomAir Model,LIVINGROOM3.2,Mixing/Well-Stirred
RoomAir Model,BEDROOM3.7,Mixing/Well-Stirred
! <AirflowNetwork Model:Control>, No Multizone or Distribution/Multizone with Distribution/Multizone without Distribution/Multizone with Distribution only during Fan Operation
AirflowNetwork Model:Control,NoMultizoneOrDistribution
! <Zone Volume Capacitance Multiplier>, Sensible Heat Capacity Multiplier, Moisture Capacity Multiplier, Carbon Dioxide Capacity Multiplier, Generic Contaminant Capacity Multiplier
Zone Volume Capacitance Multiplier,   1.000 ,   1.000,   1.000,   1.000
! <Environment>,Environment Name,Environment Type, Start Date, End Date, Start DayOfWeek, Duration {#days}, Source:Start DayOfWeek,  Use Daylight Saving, Use Holidays, Apply Weekend Holiday Rule,  Use Rain Values, Use Snow Values
! <Environment:Special Days>, Special Day Name, Special Day Type, Source, Start Date, Duration {#days}
! <Environment:Daylight Saving>, Daylight Saving Indicator, Source, Start Date, End Date
! <Environment:WarmupDays>, NumberofWarmupDays
Environment,RUNPERIOD,WeatherFileRunPeriod,01/01/2015,12/31/2016,Thursday,365,Use RunPeriod Specified Day,Yes,Yes,No,Yes,Yes
Environment:Daylight Saving,Yes,InputFile,03/08,11/01
Environment:WarmupDays, 12
! <Warmup Convergence Information>,Zone Name,Environment Type/Name,Average Warmup Temperature Difference {deltaC},Std Dev Warmup Temperature Difference {deltaC},Max Temperature Pass/Fail Convergence,Min Temperature Pass/Fail Convergence,Average Warmup Load Difference {W},Std Dev Warmup Load Difference {W},Heating Load Pass/Fail Convergence,Cooling Load Pass/Fail Convergence
 Warmup Convergence Information,KITCHEN1.1,RunPeriod: RUNPERIOD,7.3655083551E-002,6.5179689162E-002,Pass,Pass,0.0000000000,0.0000000000,Pass,Pass
 Warmup Convergence Information,BEDROOM1.4,RunPeriod: RUNPERIOD,0.2017661947,0.9252070062,Pass,Pass,2.0739162373E-002,0.1093347993,Pass,Pass
 Warmup Convergence Information,KITCHEN1.2,RunPeriod: RUNPERIOD,7.3654077533E-002,6.5182635465E-002,Pass,Pass,0.0000000000,0.0000000000,Pass,Pass
 Warmup Convergence Information,LIVINGROOM1.2,RunPeriod: RUNPERIOD,0.2032131931,0.8846228362,Pass,Pass,2.1562994130E-002,8.7314954828E-002,Pass,Pass
 Warmup Convergence Information,BEDROOM1.7,RunPeriod: RUNPERIOD,0.1927340972,0.8713170254,Pass,Pass,2.4649793835E-002,0.1304249354,Pass,Pass
 Warmup Convergence Information,LIVINGROOM1.3,RunPeriod: RUNPERIOD,0.2039461551,0.8886161520,Pass,Pass,2.1517071912E-002,8.7328242036E-002,Pass,Pass
 Warmup Convergence Information,BEDROOM1.9,RunPeriod: RUNPERIOD,0.2032741875,0.9391876050,Pass,Pass,2.0364851960E-002,0.1068463715,Pass,Pass
 Warmup Convergence Information,BEDROOM1.10,RunPeriod: RUNPERIOD,0.1950618462,0.9087763486,Pass,Pass,1.9468184082E-002,0.1015549141,Pass,Pass
 Warmup Convergence Information,BEDROOM1.11,RunPeriod: RUNPERIOD,0.1950175945,0.9085314824,Pass,Pass,1.9475147815E-002,0.1016307991,Pass,Pass
 Warmup Convergence Information,BEDROOM1.12,RunPeriod: RUNPERIOD,0.2030723544,0.9378611132,Pass,Pass,2.0394489956E-002,0.1069259874,Pass,Pass
 Warmup Convergence Information,STAIRCASE1.1,RunPeriod: RUNPERIOD,1.9428569809E-003,1.0462198085E-003,Pass,Pass,0.0000000000,0.0000000000,Pass,Pass
 Warmup Convergence Information,KITCHEN1.3,RunPeriod: RUNPERIOD,7.3701682148E-002,6.5106165054E-002,Pass,Pass,0.0000000000,0.0000000000,Pass,Pass
 Warmup Convergence Information,KITCHEN1.4,RunPeriod: RUNPERIOD,7.3700662764E-002,6.5107910455E-002,Pass,Pass,0.0000000000,0.0000000000,Pass,Pass
 Warmup Convergence Information,LIVINGROOM1.4,RunPeriod: RUNPERIOD,0.2037029539,0.8871042472,Pass,Pass,2.1540379764E-002,8.7298412810E-002,Pass,Pass
 Warmup Convergence Information,BEDROOM1.6,RunPeriod: RUNPERIOD,0.1924936382,0.8696364675,Pass,Pass,2.4754755830E-002,0.1308438397,Pass,Pass
 Warmup Convergence Information,BEDROOM1.8,RunPeriod: RUNPERIOD,0.1925443604,0.8699133701,Pass,Pass,2.4725736047E-002,0.1307053976,Pass,Pass
 Warmup Convergence Information,BEDROOM1.3,RunPeriod: RUNPERIOD,0.1933840198,0.8927101554,Pass,Pass,1.9916122562E-002,0.1054125542,Pass,Pass
 Warmup Convergence Information,BEDROOM1.2,RunPeriod: RUNPERIOD,0.1934264294,0.8929519708,Pass,Pass,1.9908619946E-002,0.1053348285,Pass,Pass
 Warmup Convergence Information,BEDROOM1.1,RunPeriod: RUNPERIOD,0.2019524334,0.9265156461,Pass,Pass,2.0707115135E-002,0.1092754634,Pass,Pass
 Warmup Convergence Information,LIVINGROOM1.1,RunPeriod: RUNPERIOD,0.2034569168,0.8861374577,Pass,Pass,2.1539303180E-002,8.7343060193E-002,Pass,Pass
 Warmup Convergence Information,BEDROOM1.5,RunPeriod: RUNPERIOD,0.1926833114,0.8710401394,Pass,Pass,2.4678535926E-002,0.1305623562,Pass,Pass
 Warmup Convergence Information,LIVINGROOM2.4,RunPeriod: RUNPERIOD,0.2091929175,0.9138284342,Pass,Pass,2.1278521593E-002,8.7181142018E-002,Pass,Pass
 Warmup Convergence Information,BEDROOM2.5,RunPeriod: RUNPERIOD,0.1969150786,0.8913791089,Pass,Pass,2.3576262672E-002,0.1249187712,Pass,Pass
 Warmup Convergence Information,LIVINGROOM2.1,RunPeriod: RUNPERIOD,0.2088981445,0.9126407974,Pass,Pass,2.1277654045E-002,8.7190819030E-002,Pass,Pass
 Warmup Convergence Information,BEDROOM2.11,RunPeriod: RUNPERIOD,0.1991863899,0.9282038297,Pass,Pass,1.9236799067E-002,9.8137283204E-002,Pass,Pass
 Warmup Convergence Information,BEDROOM2.10,RunPeriod: RUNPERIOD,0.1992403795,0.9284589755,Pass,Pass,1.9230065478E-002,9.8061097041E-002,Pass,Pass
 Warmup Convergence Information,BEDROOM2.9,RunPeriod: RUNPERIOD,0.2075215172,0.9576837446,Pass,Pass,2.0151612463E-002,0.1036778652,Pass,Pass
 Warmup Convergence Information,LIVINGROOM2.3,RunPeriod: RUNPERIOD,0.2094262292,0.9153034931,Pass,Pass,2.1257925540E-002,8.7215284398E-002,Pass,Pass
 Warmup Convergence Information,BEDROOM2.7,RunPeriod: RUNPERIOD,0.1969787813,0.8916722133,Pass,Pass,2.3546853318E-002,0.1247809247,Pass,Pass
 Warmup Convergence Information,LIVINGROOM2.2,RunPeriod: RUNPERIOD,0.2086646682,0.9111642142,Pass,Pass,2.1298599276E-002,8.7157902507E-002,Pass,Pass
 Warmup Convergence Information,BEDROOM2.2,RunPeriod: RUNPERIOD,0.1972554494,0.9116583857,Pass,Pass,1.9646788879E-002,0.1018390796,Pass,Pass
 Warmup Convergence Information,BEDROOM2.8,RunPeriod: RUNPERIOD,0.1967422674,0.8902217404,Pass,Pass,2.3620626721E-002,0.1250494883,Pass,Pass
 Warmup Convergence Information,BEDROOM2.3,RunPeriod: RUNPERIOD,0.1972099421,0.9114047133,Pass,Pass,1.9654046717E-002,0.1019163211,Pass,Pass
 Warmup Convergence Information,BEDROOM2.1,RunPeriod: RUNPERIOD,0.2059843660,0.9443468445,Pass,Pass,2.0488974613E-002,0.1062332300,Pass,Pass
 Warmup Convergence Information,BEDROOM2.4,RunPeriod: RUNPERIOD,0.2057880091,0.9429949507,Pass,Pass,2.0519079187E-002,0.1062972301,Pass,Pass
 Warmup Convergence Information,BEDROOM2.6,RunPeriod: RUNPERIOD,0.1966786731,0.8899286109,Pass,Pass,2.3650093803E-002,0.1251875640,Pass,Pass
 Warmup Convergence Information,KITCHEN2.1,RunPeriod: RUNPERIOD,7.5730574231E-002,6.4997899566E-002,Pass,Pass,0.0000000000,0.0000000000,Pass,Pass
 Warmup Convergence Information,KITCHEN2.4,RunPeriod: RUNPERIOD,7.5775125763E-002,6.4920572966E-002,Pass,Pass,0.0000000000,0.0000000000,Pass,Pass
 Warmup Convergence Information,KITCHEN2.3,RunPeriod: RUNPERIOD,7.5775882232E-002,6.4924305717E-002,Pass,Pass,0.0000000000,0.0000000000,Pass,Pass
 Warmup Convergence Information,STAIRCASE2.1,RunPeriod: RUNPERIOD,2.2901607470E-003,1.3115867237E-003,Pass,Pass,0.0000000000,0.0000000000,Pass,Pass
 Warmup Convergence Information,BEDROOM2.12,RunPeriod: RUNPERIOD,0.2073074564,0.9563115541,Pass,Pass,2.0179535630E-002,0.1037655331,Pass,Pass
 Warmup Convergence Information,KITCHEN2.2,RunPeriod: RUNPERIOD,7.5729638026E-002,6.4957842633E-002,Pass,Pass,0.0000000000,0.0000000000,Pass,Pass
 Warmup Convergence Information,LIVINGROOM3.4,RunPeriod: RUNPERIOD,0.2125610146,0.9326991455,Pass,Pass,2.0393890208E-002,8.5898574393E-002,Pass,Pass
 Warmup Convergence Information,BEDROOM3.5,RunPeriod: RUNPERIOD,0.2008781170,0.9099014808,Pass,Pass,2.2033077057E-002,0.1187191079,Pass,Pass
 Warmup Convergence Information,LIVINGROOM3.1,RunPeriod: RUNPERIOD,0.2122743284,0.9315155368,Pass,Pass,2.0391595169E-002,8.5864307669E-002,Pass,Pass
 Warmup Convergence Information,BEDROOM3.11,RunPeriod: RUNPERIOD,0.2017932079,0.9416512103,Pass,Pass,1.8702135589E-002,9.4667282982E-002,Pass,Pass
 Warmup Convergence Information,BEDROOM3.10,RunPeriod: RUNPERIOD,0.2018454359,0.9418906380,Pass,Pass,1.8696200572E-002,9.4599263036E-002,Pass,Pass
 Warmup Convergence Information,BEDROOM3.9,RunPeriod: RUNPERIOD,0.2099657185,0.9694281144,Pass,Pass,1.9653786530E-002,0.1008592476,Pass,Pass
 Warmup Convergence Information,LIVINGROOM3.3,RunPeriod: RUNPERIOD,0.2127755141,0.9340857261,Pass,Pass,2.0376041946E-002,8.5922027092E-002,Pass,Pass
 Warmup Convergence Information,KITCHEN3.4,RunPeriod: RUNPERIOD,7.5875566641E-002,6.3853461116E-002,Pass,Pass,0.0000000000,0.0000000000,Pass,Pass
 Warmup Convergence Information,KITCHEN3.1,RunPeriod: RUNPERIOD,7.5837056778E-002,6.3861631870E-002,Pass,Pass,0.0000000000,0.0000000000,Pass,Pass
 Warmup Convergence Information,BEDROOM3.4,RunPeriod: RUNPERIOD,0.2081560498,0.9551674331,Pass,Pass,1.9983974042E-002,0.1032115057,Pass,Pass
 Warmup Convergence Information,BEDROOM3.6,RunPeriod: RUNPERIOD,0.2006503231,0.9085132237,Pass,Pass,2.2095980804E-002,0.1189347362,Pass,Pass
