Program Version,EnergyPlus, Version 8.7.0-78a111df4a, YMD=2019.06.21 03:07
! <Version>, Version ID
 Version, 8.7
! <Timesteps per Hour>, #TimeSteps, Minutes per TimeStep {minutes}
 Timesteps per Hour,  6, 10
! <System Convergence Limits>, Minimum System TimeStep {minutes}, Max HVAC Iterations, Minimum Plant Iterations, Maximum Plant Iterations
 System Convergence Limits, 1, 20, 2, 8
! <Simulation Control>, Do Zone Sizing, Do System Sizing, Do Plant Sizing, Do Design Days, Do Weather Simulation, Do HVAC Sizing Simulation
 Simulation Control, Yes, No, No, Yes, Yes, No
! <Output Reporting Tolerances>, Tolerance for Time Heating Setpoint Not Met, Tolerance for Zone Cooling Setpoint Not Met Time
 Output Reporting Tolerances, 0.200, 0.200, 
! <Site:GroundTemperature:BuildingSurface>,Jan{C},Feb{C},Mar{C},Apr{C},May{C},Jun{C},Jul{C},Aug{C},Sep{C},Oct{C},Nov{C},Dec{C}
 Site:GroundTemperature:BuildingSurface,  18.00,  18.00,  18.00,  18.00,  18.00,  18.00,  18.00,  18.00,  18.00,  18.00,  18.00,  18.00
! <Site:GroundTemperature:FCfactorMethod>,Jan{C},Feb{C},Mar{C},Apr{C},May{C},Jun{C},Jul{C},Aug{C},Sep{C},Oct{C},Nov{C},Dec{C}
 Site:GroundTemperature:FCfactorMethod,  13.31,  10.23,   9.39,  10.12,  14.28,  18.95,  23.34,  26.51,  27.44,  25.95,  22.35,  17.82
! <Site:GroundTemperature:Shallow>,Jan{C},Feb{C},Mar{C},Apr{C},May{C},Jun{C},Jul{C},Aug{C},Sep{C},Oct{C},Nov{C},Dec{C}
 Site:GroundTemperature:Shallow,  13.00,  13.00,  13.00,  13.00,  13.00,  13.00,  13.00,  13.00,  13.00,  13.00,  13.00,  13.00
! <Site:GroundTemperature:Deep>,Jan{C},Feb{C},Mar{C},Apr{C},May{C},Jun{C},Jul{C},Aug{C},Sep{C},Oct{C},Nov{C},Dec{C}
 Site:GroundTemperature:Deep,  16.00,  16.00,  16.00,  16.00,  16.00,  16.00,  16.00,  16.00,  16.00,  16.00,  16.00,  16.00
! <Site:GroundReflectance>,Jan{dimensionless},Feb{dimensionless},Mar{dimensionless},Apr{dimensionless},May{dimensionless},Jun{dimensionless},Jul{dimensionless},Aug{dimensionless},Sep{dimensionless},Oct{dimensionless},Nov{dimensionless},Dec{dimensionless}
 Site:GroundReflectance,  0.20,  0.20,  0.20,  0.20,  0.20,  0.20,  0.20,  0.20,  0.20,  0.20,  0.20,  0.20
! <Site:GroundReflectance:SnowModifier>, Normal, Daylighting {dimensionless}
 Site:GroundReflectance:SnowModifier,   1.000,   1.000
! <Site:GroundReflectance:Snow>,Jan{dimensionless},Feb{dimensionless},Mar{dimensionless},Apr{dimensionless},May{dimensionless},Jun{dimensionless},Jul{dimensionless},Aug{dimensionless},Sep{dimensionless},Oct{dimensionless},Nov{dimensionless},Dec{dimensionless}
 Site:GroundReflectance:Snow,  0.20,  0.20,  0.20,  0.20,  0.20,  0.20,  0.20,  0.20,  0.20,  0.20,  0.20,  0.20
! <Site:GroundReflectance:Snow:Daylighting>,Jan{dimensionless},Feb{dimensionless},Mar{dimensionless},Apr{dimensionless},May{dimensionless},Jun{dimensionless},Jul{dimensionless},Aug{dimensionless},Sep{dimensionless},Oct{dimensionless},Nov{dimensionless},Dec{dimensionless}
 Site:GroundReflectance:Snow:Daylighting,  0.20,  0.20,  0.20,  0.20,  0.20,  0.20,  0.20,  0.20,  0.20,  0.20,  0.20,  0.20
! <Environment:Weather Station>,Wind Sensor Height Above Ground {m},Wind Speed Profile Exponent {},Wind Speed Profile Boundary Layer Thickness {m},Air Temperature Sensor Height Above Ground {m},Wind Speed Modifier Coefficient-Internal,Temperature Modifier Coefficient-Internal
Environment:Weather Station,10.000,0.140,270.000,1.500,1.586,9.750E-003
! <Site:Location>, Location Name, Latitude {N+/S- Deg}, Longitude {E+/W- Deg},  Time Zone Number {GMT+/-}, Elevation {m},  Standard Pressure at Elevation {Pa}, Standard RhoAir at Elevation
Site:Location,Chongqing Shapingba Chongqing CHN CSWD WMO#=575160,29.58,106.47,8.00,259.10,98251,1.1678
! <Building Information>, Building Name,North Axis {deg},Terrain,  Loads Convergence Tolerance Value,Temperature Convergence Tolerance Value,  Solar Distribution,Maximum Number of Warmup Days,Minimum Number of Warmup Days
 Building Information,Three office building,0.000,City,4.00000E-002,0.40000,FullInteriorAndExteriorWithReflectionsFromExteriorSurfaces,25,6
! <Inside Convection Algorithm>, Algorithm {Simple | TARP | CeilingDiffuser | AdaptiveConvectionAlgorithm}
Inside Convection Algorithm,TARP
! <Outside Convection Algorithm>, Algorithm {SimpleCombined | TARP | MoWitt | DOE-2 | AdaptiveConvectionAlgorithm}
Outside Convection Algorithm,DOE-2
! <Sky Radiance Distribution>, Value {Anisotropic}
Sky Radiance Distribution,Anisotropic
! <Zone Air Solution Algorithm>, Value {ThirdOrderBackwardDifference | AnalyticalSolution | EulerMethod}
 Zone Air Solution Algorithm, ThirdOrderBackwardDifference
! <Zone Air Carbon Dioxide Balance Simulation>, Simulation {Yes/No}, Carbon Dioxide Concentration
 Zone Air Carbon Dioxide Balance Simulation, No,N/A
! <Zone Air Generic Contaminant Balance Simulation>, Simulation {Yes/No}, Generic Contaminant Concentration
 Zone Air Generic Contaminant Balance Simulation, No,N/A
! <Zone Air Mass Flow Balance Simulation>, Enforce Mass Balance, Adjust Zone Mixing, Adjust Zone Infiltration {AddInfiltration | AdjustInfiltration | None}, Infiltration Zones {MixingSourceZonesOnly | AllZones}
 Zone Air Mass Flow Balance Simulation, No,N/A,N/A,N/A
! <Environment:Site Atmospheric Variation>,Wind Speed Profile Exponent {},Wind Speed Profile Boundary Layer Thickness {m},Air Temperature Gradient Coefficient {K/m}
Environment:Site Atmospheric Variation,0.330,460.000,6.500000E-003
! <Surface Geometry>,Starting Corner,Vertex Input Direction,Coordinate System,Daylight Reference Point Coordinate System,Rectangular (Simple) Surface Coordinate System
 Surface Geometry,UpperLeftCorner,Counterclockwise,RelativeCoordinateSystem,RelativeCoordinateSystem,RelativeToZoneOrigin
! <ShadingProperty Reflectance>,Shading Surface Name,Shading Type,Diffuse Solar Reflectance, Diffuse Visible Reflectance,Surface Glazing Fraction,Surface Glazing Contruction
! <Surface Heat Transfer Algorithm>, Value {CTF - ConductionTransferFunction | EMPD - MoisturePenetrationDepthConductionTransferFunction | CondFD - ConductionFiniteDifference | HAMT - CombinedHeatAndMoistureFiniteElement} - Description,Inside Surface Max Temperature Limit{C}, Surface Convection Coefficient Lower Limit {W/m2-K}, Surface Convection Coefficient Upper Limit {W/m2-K}
Surface Heat Transfer Algorithm, CTF - ConductionTransferFunction,200,0.10,1000.0
! <Shading Summary>, Number of Fixed Detached Shades, Number of Building Detached Shades, Number of Attached Shades
 Shading Summary,0,0,0
! <Zone Summary>, Number of Zones, Number of Zone Surfaces, Number of SubSurfaces
 Zone Summary,33,222,0
! <Zone Information>,Zone Name,North Axis {deg},Origin X-Coordinate {m},Origin Y-Coordinate {m},Origin Z-Coordinate {m},Centroid X-Coordinate {m},Centroid Y-Coordinate {m},Centroid Z-Coordinate {m},Type,Zone Multiplier,Zone List Multiplier,Minimum X {m},Maximum X {m},Minimum Y {m},Maximum Y {m},Minimum Z {m},Maximum Z {m},Ceiling Height {m},Volume {m3},Zone Inside Convection Algorithm {Simple-Detailed-CeilingDiffuser-TrombeWall},Zone Outside Convection Algorithm {Simple-Detailed-Tarp-MoWitt-DOE-2-BLAST}, Floor Area {m2},Exterior Gross Wall Area {m2},Exterior Net Wall Area {m2},Exterior Window Area {m2}, Number of Surfaces, Number of SubSurfaces, Number of Shading SubSurfaces,  Part of Total Building Area
 Zone Information, THERMAL ZONE: SPACE 101,0.0,0.00,7.20,-1.02E-015,1.80,3.60,1.85,1,1,1,0.00,3.60,0.00,7.20,-1.02E-015,3.70,3.70,95.90,TARP,DOE-2,25.92,39.96,39.96,0.00,6,0,0,Yes
 Zone Information, THERMAL ZONE: SPACE 102,0.0,3.60,7.20,-4.59E-016,5.40,3.60,1.85,1,1,1,3.60,7.20,0.00,7.20,-4.59E-016,3.70,3.70,95.90,TARP,DOE-2,25.92,13.32,13.32,0.00,6,0,0,Yes
 Zone Information, THERMAL ZONE: SPACE 103,0.0,7.20,7.20,-2.38E-016,9.00,3.60,1.85,1,1,1,7.20,10.80,0.00,7.20,-2.38E-016,3.70,3.70,95.90,TARP,DOE-2,25.92,13.32,13.32,0.00,6,0,0,Yes
 Zone Information, THERMAL ZONE: SPACE 104,0.0,10.80,7.20,-1.67E-016,12.60,3.60,1.85,1,1,1,10.80,14.40,0.00,7.20,-1.67E-016,3.70,3.70,95.90,TARP,DOE-2,25.92,13.32,13.32,0.00,6,0,0,Yes
 Zone Information, THERMAL ZONE: SPACE 105,0.0,18.00,0.00,0.00,16.20,3.60,1.85,1,1,1,14.40,18.00,0.00,7.20,0.00,3.70,3.70,95.90,TARP,DOE-2,25.92,39.96,39.96,0.00,6,0,0,Yes
 Zone Information, THERMAL ZONE: SPACE 106,0.0,18.00,9.60,-1.40E-015,9.00,8.40,1.85,1,1,1,0.00,18.00,7.20,9.60,-1.40E-015,3.70,3.70,159.84,TARP,DOE-2,43.20,17.76,17.76,0.00,14,0,0,Yes
 Zone Information, THERMAL ZONE: SPACE 107,0.0,0.00,16.80,-4.29E-015,1.80,13.20,1.85,1,1,1,0.00,3.60,9.60,16.80,-4.29E-015,3.70,3.70,95.90,TARP,DOE-2,25.92,39.96,39.96,0.00,6,0,0,Yes
 Zone Information, THERMAL ZONE: SPACE 108,0.0,3.60,16.80,-1.93E-015,5.40,13.20,1.85,1,1,1,3.60,7.20,9.60,16.80,-1.93E-015,3.70,3.70,95.90,TARP,DOE-2,25.92,13.32,13.32,0.00,6,0,0,Yes
 Zone Information, THERMAL ZONE: SPACE 109,0.0,7.20,16.80,-9.93E-016,9.00,13.20,1.85,1,1,1,7.20,10.80,9.60,16.80,-9.93E-016,3.70,3.70,95.90,TARP,DOE-2,25.92,13.32,13.32,0.00,6,0,0,Yes
 Zone Information, THERMAL ZONE: SPACE 110,0.0,10.80,16.80,-6.89E-016,12.60,13.20,1.85,1,1,1,10.80,14.40,9.60,16.80,-6.89E-016,3.70,3.70,95.90,TARP,DOE-2,25.92,13.32,13.32,0.00,6,0,0,Yes
 Zone Information, THERMAL ZONE: SPACE 111,0.0,18.00,9.60,-1.40E-015,16.20,13.20,1.85,1,1,1,14.40,18.00,9.60,16.80,-1.40E-015,3.70,3.70,95.90,TARP,DOE-2,25.92,39.96,39.96,0.00,6,0,0,Yes
 Zone Information, THERMAL ZONE: SPACE 201,0.0,0.00,7.20,3.70,1.80,3.60,5.55,1,1,1,0.00,3.60,0.00,7.20,3.70,7.40,3.70,95.90,TARP,DOE-2,25.92,39.96,39.96,0.00,6,0,0,Yes
 Zone Information, THERMAL ZONE: SPACE 202,0.0,3.60,7.20,3.70,5.40,3.60,5.55,1,1,1,3.60,7.20,0.00,7.20,3.70,7.40,3.70,95.90,TARP,DOE-2,25.92,13.32,13.32,0.00,6,0,0,Yes
 Zone Information, THERMAL ZONE: SPACE 203,0.0,7.20,7.20,3.70,9.00,3.60,5.55,1,1,1,7.20,10.80,0.00,7.20,3.70,7.40,3.70,95.90,TARP,DOE-2,25.92,13.32,13.32,0.00,6,0,0,Yes
 Zone Information, THERMAL ZONE: SPACE 204,0.0,10.80,7.20,3.70,12.60,3.60,5.55,1,1,1,10.80,14.40,0.00,7.20,3.70,7.40,3.70,95.90,TARP,DOE-2,25.92,13.32,13.32,0.00,6,0,0,Yes
 Zone Information, THERMAL ZONE: SPACE 205,0.0,18.00,0.00,3.70,16.20,3.60,5.55,1,1,1,14.40,18.00,0.00,7.20,3.70,7.40,3.70,95.90,TARP,DOE-2,25.92,39.96,39.96,0.00,6,0,0,Yes
 Zone Information, THERMAL ZONE: SPACE 206,0.0,18.00,9.60,3.70,9.00,8.40,5.55,1,1,1,0.00,18.00,7.20,9.60,3.70,7.40,3.70,159.84,TARP,DOE-2,43.20,17.76,17.76,0.00,14,0,0,Yes
 Zone Information, THERMAL ZONE: SPACE 207,0.0,0.00,16.80,3.70,1.80,13.20,5.55,1,1,1,0.00,3.60,9.60,16.80,3.70,7.40,3.70,95.90,TARP,DOE-2,25.92,39.96,39.96,0.00,6,0,0,Yes
 Zone Information, THERMAL ZONE: SPACE 208,0.0,3.60,16.80,3.70,5.40,13.20,5.55,1,1,1,3.60,7.20,9.60,16.80,3.70,7.40,3.70,95.90,TARP,DOE-2,25.92,13.32,13.32,0.00,6,0,0,Yes
 Zone Information, THERMAL ZONE: SPACE 209,0.0,7.20,16.80,3.70,9.00,13.20,5.55,1,1,1,7.20,10.80,9.60,16.80,3.70,7.40,3.70,95.90,TARP,DOE-2,25.92,13.32,13.32,0.00,6,0,0,Yes
 Zone Information, THERMAL ZONE: SPACE 210,0.0,10.80,16.80,3.70,12.60,13.20,5.55,1,1,1,10.80,14.40,9.60,16.80,3.70,7.40,3.70,95.90,TARP,DOE-2,25.92,13.32,13.32,0.00,6,0,0,Yes
 Zone Information, THERMAL ZONE: SPACE 211,0.0,18.00,9.60,3.70,16.20,13.20,5.55,1,1,1,14.40,18.00,9.60,16.80,3.70,7.40,3.70,95.90,TARP,DOE-2,25.92,39.96,39.96,0.00,6,0,0,Yes
 Zone Information, THERMAL ZONE: SPACE 301,0.0,0.00,7.20,7.40,1.80,3.60,9.25,1,1,1,0.00,3.60,0.00,7.20,7.40,11.10,3.70,95.90,TARP,DOE-2,25.92,39.96,39.96,0.00,6,0,0,Yes
 Zone Information, THERMAL ZONE: SPACE 302,0.0,3.60,7.20,7.40,5.40,3.60,9.25,1,1,1,3.60,7.20,0.00,7.20,7.40,11.10,3.70,95.90,TARP,DOE-2,25.92,13.32,13.32,0.00,6,0,0,Yes
 Zone Information, THERMAL ZONE: SPACE 303,0.0,7.20,7.20,7.40,9.00,3.60,9.25,1,1,1,7.20,10.80,0.00,7.20,7.40,11.10,3.70,95.90,TARP,DOE-2,25.92,13.32,13.32,0.00,6,0,0,Yes
 Zone Information, THERMAL ZONE: SPACE 304,0.0,10.80,7.20,7.40,12.60,3.60,9.25,1,1,1,10.80,14.40,0.00,7.20,7.40,11.10,3.70,95.90,TARP,DOE-2,25.92,13.32,13.32,0.00,6,0,0,Yes
 Zone Information, THERMAL ZONE: SPACE 305,0.0,18.00,0.00,7.40,16.20,3.60,9.25,1,1,1,14.40,18.00,0.00,7.20,7.40,11.10,3.70,95.90,TARP,DOE-2,25.92,39.96,39.96,0.00,6,0,0,Yes
 Zone Information, THERMAL ZONE: SPACE 306,0.0,18.00,9.60,7.40,9.00,8.40,9.25,1,1,1,0.00,18.00,7.20,9.60,7.40,11.10,3.70,159.84,TARP,DOE-2,43.20,17.76,17.76,0.00,14,0,0,Yes
 Zone Information, THERMAL ZONE: SPACE 307,0.0,0.00,16.80,7.40,1.80,13.20,9.25,1,1,1,0.00,3.60,9.60,16.80,7.40,11.10,3.70,95.90,TARP,DOE-2,25.92,39.96,39.96,0.00,6,0,0,Yes
 Zone Information, THERMAL ZONE: SPACE 308,0.0,3.60,16.80,7.40,5.40,13.20,9.25,1,1,1,3.60,7.20,9.60,16.80,7.40,11.10,3.70,95.90,TARP,DOE-2,25.92,13.32,13.32,0.00,6,0,0,Yes
 Zone Information, THERMAL ZONE: SPACE 309,0.0,7.20,16.80,7.40,9.00,13.20,9.25,1,1,1,7.20,10.80,9.60,16.80,7.40,11.10,3.70,95.90,TARP,DOE-2,25.92,13.32,13.32,0.00,6,0,0,Yes
 Zone Information, THERMAL ZONE: SPACE 310,0.0,10.80,16.80,7.40,12.60,13.20,9.25,1,1,1,10.80,14.40,9.60,16.80,7.40,11.10,3.70,95.90,TARP,DOE-2,25.92,13.32,13.32,0.00,6,0,0,Yes
 Zone Information, THERMAL ZONE: SPACE 311,0.0,18.00,9.60,7.40,16.20,13.20,9.25,1,1,1,14.40,18.00,9.60,16.80,7.40,11.10,3.70,95.90,TARP,DOE-2,25.92,39.96,39.96,0.00,6,0,0,Yes
! <Zone Internal Gains Nominal>,Zone Name, Floor Area {m2},# Occupants,Area per Occupant {m2/person},Occupant per Area {person/m2},Interior Lighting {W/m2},Electric Load {W/m2},Gas Load {W/m2},Other Load {W/m2},Hot Water Eq {W/m2},Steam Equipment {W/m2},Sum Loads per Area {W/m2},Outdoor Controlled Baseboard Heat
 Zone Internal Gains Nominal, THERMAL ZONE: SPACE 101,25.92,6.5,4.000,0.250,9.000,5.000,0.000,0.000,0.000,0.000,14.000,No
 Zone Internal Gains Nominal, THERMAL ZONE: SPACE 102,25.92,6.5,4.000,0.250,9.000,5.000,0.000,0.000,0.000,0.000,14.000,No
 Zone Internal Gains Nominal, THERMAL ZONE: SPACE 103,25.92,6.5,4.000,0.250,9.000,5.000,0.000,0.000,0.000,0.000,14.000,No
 Zone Internal Gains Nominal, THERMAL ZONE: SPACE 104,25.92,6.5,4.000,0.250,9.000,5.000,0.000,0.000,0.000,0.000,14.000,No
 Zone Internal Gains Nominal, THERMAL ZONE: SPACE 105,25.92,6.5,4.000,0.250,9.000,5.000,0.000,0.000,0.000,0.000,14.000,No
 Zone Internal Gains Nominal, THERMAL ZONE: SPACE 106,43.20,10.8,4.000,0.250,9.000,5.000,0.000,0.000,0.000,0.000,14.000,No
 Zone Internal Gains Nominal, THERMAL ZONE: SPACE 107,25.92,6.5,4.000,0.250,9.000,5.000,0.000,0.000,0.000,0.000,14.000,No
 Zone Internal Gains Nominal, THERMAL ZONE: SPACE 108,25.92,6.5,4.000,0.250,9.000,5.000,0.000,0.000,0.000,0.000,14.000,No
 Zone Internal Gains Nominal, THERMAL ZONE: SPACE 109,25.92,6.5,4.000,0.250,9.000,5.000,0.000,0.000,0.000,0.000,14.000,No
 Zone Internal Gains Nominal, THERMAL ZONE: SPACE 110,25.92,6.5,4.000,0.250,9.000,5.000,0.000,0.000,0.000,0.000,14.000,No
 Zone Internal Gains Nominal, THERMAL ZONE: SPACE 111,25.92,6.5,4.000,0.250,9.000,5.000,0.000,0.000,0.000,0.000,14.000,No
 Zone Internal Gains Nominal, THERMAL ZONE: SPACE 201,25.92,6.5,4.000,0.250,9.000,5.000,0.000,0.000,0.000,0.000,14.000,No
 Zone Internal Gains Nominal, THERMAL ZONE: SPACE 202,25.92,6.5,4.000,0.250,9.000,5.000,0.000,0.000,0.000,0.000,14.000,No
 Zone Internal Gains Nominal, THERMAL ZONE: SPACE 203,25.92,6.5,4.000,0.250,9.000,5.000,0.000,0.000,0.000,0.000,14.000,No
 Zone Internal Gains Nominal, THERMAL ZONE: SPACE 204,25.92,6.5,4.000,0.250,9.000,5.000,0.000,0.000,0.000,0.000,14.000,No
 Zone Internal Gains Nominal, THERMAL ZONE: SPACE 205,25.92,6.5,4.000,0.250,9.000,5.000,0.000,0.000,0.000,0.000,14.000,No
 Zone Internal Gains Nominal, THERMAL ZONE: SPACE 206,43.20,10.8,4.000,0.250,9.000,5.000,0.000,0.000,0.000,0.000,14.000,No
 Zone Internal Gains Nominal, THERMAL ZONE: SPACE 207,25.92,6.5,4.000,0.250,9.000,5.000,0.000,0.000,0.000,0.000,14.000,No
 Zone Internal Gains Nominal, THERMAL ZONE: SPACE 208,25.92,6.5,4.000,0.250,9.000,5.000,0.000,0.000,0.000,0.000,14.000,No
 Zone Internal Gains Nominal, THERMAL ZONE: SPACE 209,25.92,6.5,4.000,0.250,9.000,5.000,0.000,0.000,0.000,0.000,14.000,No
 Zone Internal Gains Nominal, THERMAL ZONE: SPACE 210,25.92,6.5,4.000,0.250,9.000,5.000,0.000,0.000,0.000,0.000,14.000,No
 Zone Internal Gains Nominal, THERMAL ZONE: SPACE 211,25.92,6.5,4.000,0.250,9.000,5.000,0.000,0.000,0.000,0.000,14.000,No
 Zone Internal Gains Nominal, THERMAL ZONE: SPACE 301,25.92,6.5,4.000,0.250,9.000,5.000,0.000,0.000,0.000,0.000,14.000,No
 Zone Internal Gains Nominal, THERMAL ZONE: SPACE 302,25.92,6.5,4.000,0.250,9.000,5.000,0.000,0.000,0.000,0.000,14.000,No
 Zone Internal Gains Nominal, THERMAL ZONE: SPACE 303,25.92,6.5,4.000,0.250,9.000,5.000,0.000,0.000,0.000,0.000,14.000,No
 Zone Internal Gains Nominal, THERMAL ZONE: SPACE 304,25.92,6.5,4.000,0.250,9.000,5.000,0.000,0.000,0.000,0.000,14.000,No
 Zone Internal Gains Nominal, THERMAL ZONE: SPACE 305,25.92,6.5,4.000,0.250,9.000,5.000,0.000,0.000,0.000,0.000,14.000,No
 Zone Internal Gains Nominal, THERMAL ZONE: SPACE 306,43.20,10.8,4.000,0.250,9.000,5.000,0.000,0.000,0.000,0.000,14.000,No
 Zone Internal Gains Nominal, THERMAL ZONE: SPACE 307,25.92,6.5,4.000,0.250,9.000,5.000,0.000,0.000,0.000,0.000,14.000,No
 Zone Internal Gains Nominal, THERMAL ZONE: SPACE 308,25.92,6.5,4.000,0.250,9.000,5.000,0.000,0.000,0.000,0.000,14.000,No
 Zone Internal Gains Nominal, THERMAL ZONE: SPACE 309,25.92,6.5,4.000,0.250,9.000,5.000,0.000,0.000,0.000,0.000,14.000,No
 Zone Internal Gains Nominal, THERMAL ZONE: SPACE 310,25.92,6.5,4.000,0.250,9.000,5.000,0.000,0.000,0.000,0.000,14.000,No
 Zone Internal Gains Nominal, THERMAL ZONE: SPACE 311,25.92,6.5,4.000,0.250,9.000,5.000,0.000,0.000,0.000,0.000,14.000,No
! <People Internal Gains Nominal>,Name,Schedule Name,Zone Name,Zone Floor Area {m2},# Zone Occupants,Number of People {},People/Floor Area {person/m2},Floor Area per person {m2/person},Fraction Radiant,Fraction Convected,Sensible Fraction Calculation,Activity level,ASHRAE 55 Warnings,Carbon Dioxide Generation Rate,Nominal Minimum Number of People,Nominal Maximum Number of People,MRT Calculation Type,Work Efficiency, Clothing Insulation Calculation Method,Clothing Insulation Calculation Method Schedule,Clothing,Air Velocity,Fanger Calculation,Pierce Calculation,KSU Calculation
 People Internal Gains Nominal, THERMAL ZONE: SPACE 101 PEOPLE,OCUPACY,THERMAL ZONE: SPACE 101,25.92,6.5,6.5,0.250,4.000,0.300,0.700,AutoCalculate,ACTSCHD,No,3.8200E-008,0,6,Zone Averaged,ACTSCHDF,Dynamic Clothing Model ASHRAE55,N/A,Constant-1.0,AIR VELOCITY SCHEDULE,Yes,No,No
 People Internal Gains Nominal, THERMAL ZONE: SPACE 102 PEOPLE,OCUPACY,THERMAL ZONE: SPACE 102,25.92,6.5,6.5,0.250,4.000,0.300,0.700,AutoCalculate,ACTSCHD,No,3.8200E-008,0,6,Zone Averaged,ACTSCHDF,Dynamic Clothing Model ASHRAE55,N/A,Constant-1.0,AIR VELOCITY SCHEDULE,Yes,No,No
 People Internal Gains Nominal, THERMAL ZONE: SPACE 103 PEOPLE,OCUPACY,THERMAL ZONE: SPACE 103,25.92,6.5,6.5,0.250,4.000,0.300,0.700,AutoCalculate,ACTSCHD,No,3.8200E-008,0,6,Zone Averaged,ACTSCHDF,Dynamic Clothing Model ASHRAE55,N/A,Constant-1.0,AIR VELOCITY SCHEDULE,Yes,No,No
 People Internal Gains Nominal, THERMAL ZONE: SPACE 104 PEOPLE,OCUPACY,THERMAL ZONE: SPACE 104,25.92,6.5,6.5,0.250,4.000,0.300,0.700,AutoCalculate,ACTSCHD,No,3.8200E-008,0,6,Zone Averaged,ACTSCHDF,Dynamic Clothing Model ASHRAE55,N/A,Constant-1.0,AIR VELOCITY SCHEDULE,Yes,No,No
 People Internal Gains Nominal, THERMAL ZONE: SPACE 105 PEOPLE,OCUPACY,THERMAL ZONE: SPACE 105,25.92,6.5,6.5,0.250,4.000,0.300,0.700,AutoCalculate,ACTSCHD,No,3.8200E-008,0,6,Zone Averaged,ACTSCHDF,Dynamic Clothing Model ASHRAE55,N/A,Constant-1.0,AIR VELOCITY SCHEDULE,Yes,No,No
 People Internal Gains Nominal, THERMAL ZONE: SPACE 106 PEOPLE,OCUPACY,THERMAL ZONE: SPACE 106,43.20,10.8,10.8,0.250,4.000,0.300,0.700,AutoCalculate,ACTSCHD,No,3.8200E-008,0,10,Zone Averaged,ACTSCHDF,Dynamic Clothing Model ASHRAE55,N/A,Constant-1.0,AIR VELOCITY SCHEDULE,Yes,No,No
 People Internal Gains Nominal, THERMAL ZONE: SPACE 107 PEOPLE,OCUPACY,THERMAL ZONE: SPACE 107,25.92,6.5,6.5,0.250,4.000,0.300,0.700,AutoCalculate,ACTSCHD,No,3.8200E-008,0,6,Zone Averaged,ACTSCHDF,Dynamic Clothing Model ASHRAE55,N/A,Constant-1.0,AIR VELOCITY SCHEDULE,Yes,No,No
 People Internal Gains Nominal, THERMAL ZONE: SPACE 108 PEOPLE,OCUPACY,THERMAL ZONE: SPACE 108,25.92,6.5,6.5,0.250,4.000,0.300,0.700,AutoCalculate,ACTSCHD,No,3.8200E-008,0,6,Zone Averaged,ACTSCHDF,Dynamic Clothing Model ASHRAE55,N/A,Constant-1.0,AIR VELOCITY SCHEDULE,Yes,No,No
 People Internal Gains Nominal, THERMAL ZONE: SPACE 109 PEOPLE,OCUPACY,THERMAL ZONE: SPACE 109,25.92,6.5,6.5,0.250,4.000,0.300,0.700,AutoCalculate,ACTSCHD,No,3.8200E-008,0,6,Zone Averaged,ACTSCHDF,Dynamic Clothing Model ASHRAE55,N/A,Constant-1.0,AIR VELOCITY SCHEDULE,Yes,No,No
 People Internal Gains Nominal, THERMAL ZONE: SPACE 110 PEOPLE,OCUPACY,THERMAL ZONE: SPACE 110,25.92,6.5,6.5,0.250,4.000,0.300,0.700,AutoCalculate,ACTSCHD,No,3.8200E-008,0,6,Zone Averaged,ACTSCHDF,Dynamic Clothing Model ASHRAE55,N/A,Constant-1.0,AIR VELOCITY SCHEDULE,Yes,No,No
 People Internal Gains Nominal, THERMAL ZONE: SPACE 111 PEOPLE,OCUPACY,THERMAL ZONE: SPACE 111,25.92,6.5,6.5,0.250,4.000,0.300,0.700,AutoCalculate,ACTSCHD,No,3.8200E-008,0,6,Zone Averaged,ACTSCHDF,Dynamic Clothing Model ASHRAE55,N/A,Constant-1.0,AIR VELOCITY SCHEDULE,Yes,No,No
 People Internal Gains Nominal, THERMAL ZONE: SPACE 201 PEOPLE,OCUPACY,THERMAL ZONE: SPACE 201,25.92,6.5,6.5,0.250,4.000,0.300,0.700,AutoCalculate,ACTSCHD,No,3.8200E-008,0,6,Zone Averaged,ACTSCHDF,Dynamic Clothing Model ASHRAE55,N/A,Constant-1.0,AIR VELOCITY SCHEDULE,Yes,No,No
 People Internal Gains Nominal, THERMAL ZONE: SPACE 202 PEOPLE,OCUPACY,THERMAL ZONE: SPACE 202,25.92,6.5,6.5,0.250,4.000,0.300,0.700,AutoCalculate,ACTSCHD,No,3.8200E-008,0,6,Zone Averaged,ACTSCHDF,Dynamic Clothing Model ASHRAE55,N/A,Constant-1.0,AIR VELOCITY SCHEDULE,Yes,No,No
 People Internal Gains Nominal, THERMAL ZONE: SPACE 203 PEOPLE,OCUPACY,THERMAL ZONE: SPACE 203,25.92,6.5,6.5,0.250,4.000,0.300,0.700,AutoCalculate,ACTSCHD,No,3.8200E-008,0,6,Zone Averaged,ACTSCHDF,Dynamic Clothing Model ASHRAE55,N/A,Constant-1.0,AIR VELOCITY SCHEDULE,Yes,No,No
 People Internal Gains Nominal, THERMAL ZONE: SPACE 204 PEOPLE,OCUPACY,THERMAL ZONE: SPACE 204,25.92,6.5,6.5,0.250,4.000,0.300,0.700,AutoCalculate,ACTSCHD,No,3.8200E-008,0,6,Zone Averaged,ACTSCHDF,Dynamic Clothing Model ASHRAE55,N/A,Constant-1.0,AIR VELOCITY SCHEDULE,Yes,No,No
 People Internal Gains Nominal, THERMAL ZONE: SPACE 205 PEOPLE,OCUPACY,THERMAL ZONE: SPACE 205,25.92,6.5,6.5,0.250,4.000,0.300,0.700,AutoCalculate,ACTSCHD,No,3.8200E-008,0,6,Zone Averaged,ACTSCHDF,Dynamic Clothing Model ASHRAE55,N/A,Constant-1.0,AIR VELOCITY SCHEDULE,Yes,No,No
 People Internal Gains Nominal, THERMAL ZONE: SPACE 206 PEOPLE,OCUPACY,THERMAL ZONE: SPACE 206,43.20,10.8,10.8,0.250,4.000,0.300,0.700,AutoCalculate,ACTSCHD,No,3.8200E-008,0,10,Zone Averaged,ACTSCHDF,Dynamic Clothing Model ASHRAE55,N/A,Constant-1.0,AIR VELOCITY SCHEDULE,Yes,No,No
 People Internal Gains Nominal, THERMAL ZONE: SPACE 207 PEOPLE,OCUPACY,THERMAL ZONE: SPACE 207,25.92,6.5,6.5,0.250,4.000,0.300,0.700,AutoCalculate,ACTSCHD,No,3.8200E-008,0,6,Zone Averaged,ACTSCHDF,Dynamic Clothing Model ASHRAE55,N/A,Constant-1.0,AIR VELOCITY SCHEDULE,Yes,No,No
 People Internal Gains Nominal, THERMAL ZONE: SPACE 208 PEOPLE,OCUPACY,THERMAL ZONE: SPACE 208,25.92,6.5,6.5,0.250,4.000,0.300,0.700,AutoCalculate,ACTSCHD,No,3.8200E-008,0,6,Zone Averaged,ACTSCHDF,Dynamic Clothing Model ASHRAE55,N/A,Constant-1.0,AIR VELOCITY SCHEDULE,Yes,No,No
 People Internal Gains Nominal, THERMAL ZONE: SPACE 209 PEOPLE,OCUPACY,THERMAL ZONE: SPACE 209,25.92,6.5,6.5,0.250,4.000,0.300,0.700,AutoCalculate,ACTSCHD,No,3.8200E-008,0,6,Zone Averaged,ACTSCHDF,Dynamic Clothing Model ASHRAE55,N/A,Constant-1.0,AIR VELOCITY SCHEDULE,Yes,No,No
 People Internal Gains Nominal, THERMAL ZONE: SPACE 210 PEOPLE,OCUPACY,THERMAL ZONE: SPACE 210,25.92,6.5,6.5,0.250,4.000,0.300,0.700,AutoCalculate,ACTSCHD,No,3.8200E-008,0,6,Zone Averaged,ACTSCHDF,Dynamic Clothing Model ASHRAE55,N/A,Constant-1.0,AIR VELOCITY SCHEDULE,Yes,No,No
 People Internal Gains Nominal, THERMAL ZONE: SPACE 211 PEOPLE,OCUPACY,THERMAL ZONE: SPACE 211,25.92,6.5,6.5,0.250,4.000,0.300,0.700,AutoCalculate,ACTSCHD,No,3.8200E-008,0,6,Zone Averaged,ACTSCHDF,Dynamic Clothing Model ASHRAE55,N/A,Constant-1.0,AIR VELOCITY SCHEDULE,Yes,No,No
 People Internal Gains Nominal, THERMAL ZONE: SPACE 301 PEOPLE,OCUPACY,THERMAL ZONE: SPACE 301,25.92,6.5,6.5,0.250,4.000,0.300,0.700,AutoCalculate,ACTSCHD,No,3.8200E-008,0,6,Zone Averaged,ACTSCHDF,Dynamic Clothing Model ASHRAE55,N/A,Constant-1.0,AIR VELOCITY SCHEDULE,Yes,No,No
 People Internal Gains Nominal, THERMAL ZONE: SPACE 302 PEOPLE,OCUPACY,THERMAL ZONE: SPACE 302,25.92,6.5,6.5,0.250,4.000,0.300,0.700,AutoCalculate,ACTSCHD,No,3.8200E-008,0,6,Zone Averaged,ACTSCHDF,Dynamic Clothing Model ASHRAE55,N/A,Constant-1.0,AIR VELOCITY SCHEDULE,Yes,No,No
 People Internal Gains Nominal, THERMAL ZONE: SPACE 303 PEOPLE,OCUPACY,THERMAL ZONE: SPACE 303,25.92,6.5,6.5,0.250,4.000,0.300,0.700,AutoCalculate,ACTSCHD,No,3.8200E-008,0,6,Zone Averaged,ACTSCHDF,Dynamic Clothing Model ASHRAE55,N/A,Constant-1.0,AIR VELOCITY SCHEDULE,Yes,No,No
 People Internal Gains Nominal, THERMAL ZONE: SPACE 304 PEOPLE,OCUPACY,THERMAL ZONE: SPACE 304,25.92,6.5,6.5,0.250,4.000,0.300,0.700,AutoCalculate,ACTSCHD,No,3.8200E-008,0,6,Zone Averaged,ACTSCHDF,Dynamic Clothing Model ASHRAE55,N/A,Constant-1.0,AIR VELOCITY SCHEDULE,Yes,No,No
 People Internal Gains Nominal, THERMAL ZONE: SPACE 305 PEOPLE,OCUPACY,THERMAL ZONE: SPACE 305,25.92,6.5,6.5,0.250,4.000,0.300,0.700,AutoCalculate,ACTSCHD,No,3.8200E-008,0,6,Zone Averaged,ACTSCHDF,Dynamic Clothing Model ASHRAE55,N/A,Constant-1.0,AIR VELOCITY SCHEDULE,Yes,No,No
 People Internal Gains Nominal, THERMAL ZONE: SPACE 306 PEOPLE,OCUPACY,THERMAL ZONE: SPACE 306,43.20,10.8,10.8,0.250,4.000,0.300,0.700,AutoCalculate,ACTSCHD,No,3.8200E-008,0,10,Zone Averaged,ACTSCHDF,Dynamic Clothing Model ASHRAE55,N/A,Constant-1.0,AIR VELOCITY SCHEDULE,Yes,No,No
 People Internal Gains Nominal, THERMAL ZONE: SPACE 307 PEOPLE,OCUPACY,THERMAL ZONE: SPACE 307,25.92,6.5,6.5,0.250,4.000,0.300,0.700,AutoCalculate,ACTSCHD,No,3.8200E-008,0,6,Zone Averaged,ACTSCHDF,Dynamic Clothing Model ASHRAE55,N/A,Constant-1.0,AIR VELOCITY SCHEDULE,Yes,No,No
 People Internal Gains Nominal, THERMAL ZONE: SPACE 308 PEOPLE,OCUPACY,THERMAL ZONE: SPACE 308,25.92,6.5,6.5,0.250,4.000,0.300,0.700,AutoCalculate,ACTSCHD,No,3.8200E-008,0,6,Zone Averaged,ACTSCHDF,Dynamic Clothing Model ASHRAE55,N/A,Constant-1.0,AIR VELOCITY SCHEDULE,Yes,No,No
 People Internal Gains Nominal, THERMAL ZONE: SPACE 309 PEOPLE,OCUPACY,THERMAL ZONE: SPACE 309,25.92,6.5,6.5,0.250,4.000,0.300,0.700,AutoCalculate,ACTSCHD,No,3.8200E-008,0,6,Zone Averaged,ACTSCHDF,Dynamic Clothing Model ASHRAE55,N/A,Constant-1.0,AIR VELOCITY SCHEDULE,Yes,No,No
 People Internal Gains Nominal, THERMAL ZONE: SPACE 310 PEOPLE,OCUPACY,THERMAL ZONE: SPACE 310,25.92,6.5,6.5,0.250,4.000,0.300,0.700,AutoCalculate,ACTSCHD,No,3.8200E-008,0,6,Zone Averaged,ACTSCHDF,Dynamic Clothing Model ASHRAE55,N/A,Constant-1.0,AIR VELOCITY SCHEDULE,Yes,No,No
 People Internal Gains Nominal, THERMAL ZONE: SPACE 311 PEOPLE,OCUPACY,THERMAL ZONE: SPACE 311,25.92,6.5,6.5,0.250,4.000,0.300,0.700,AutoCalculate,ACTSCHD,No,3.8200E-008,0,6,Zone Averaged,ACTSCHDF,Dynamic Clothing Model ASHRAE55,N/A,Constant-1.0,AIR VELOCITY SCHEDULE,Yes,No,No
! <Lights Internal Gains Nominal>,Name,Schedule Name,Zone Name,Zone Floor Area {m2},# Zone Occupants,Lighting Level {W},Lights/Floor Area {W/m2},Lights per person {W/person},Fraction Return Air,Fraction Radiant,Fraction Short Wave,Fraction Convected,Fraction Replaceable,End-Use Category,Nominal Minimum Lighting Level {W},Nominal Maximum Lighting Level {W}
 Lights Internal Gains Nominal, THERMAL ZONE: SPACE 101 LIGHTING,LIGHTING,THERMAL ZONE: SPACE 101,25.92,6.5,233.280,9.000,36.000,0.000,0.000,0.000,1.000,1.000,General,0.000,221.616
 Lights Internal Gains Nominal, THERMAL ZONE: SPACE 102 LIGHTING,LIGHTING,THERMAL ZONE: SPACE 102,25.92,6.5,233.280,9.000,36.000,0.000,0.000,0.000,1.000,1.000,General,0.000,221.616
 Lights Internal Gains Nominal, THERMAL ZONE: SPACE 103 LIGHTING,LIGHTING,THERMAL ZONE: SPACE 103,25.92,6.5,233.280,9.000,36.000,0.000,0.000,0.000,1.000,1.000,General,0.000,221.616
 Lights Internal Gains Nominal, THERMAL ZONE: SPACE 104 LIGHTING,LIGHTING,THERMAL ZONE: SPACE 104,25.92,6.5,233.280,9.000,36.000,0.000,0.000,0.000,1.000,1.000,General,0.000,221.616
 Lights Internal Gains Nominal, THERMAL ZONE: SPACE 105 LIGHTING,LIGHTING,THERMAL ZONE: SPACE 105,25.92,6.5,233.280,9.000,36.000,0.000,0.000,0.000,1.000,1.000,General,0.000,221.616
 Lights Internal Gains Nominal, THERMAL ZONE: SPACE 106 LIGHTING,LIGHTING,THERMAL ZONE: SPACE 106,43.20,10.8,388.800,9.000,36.000,0.000,0.000,0.000,1.000,1.000,General,0.000,369.360
 Lights Internal Gains Nominal, THERMAL ZONE: SPACE 107 LIGHTING,LIGHTING,THERMAL ZONE: SPACE 107,25.92,6.5,233.280,9.000,36.000,0.000,0.000,0.000,1.000,1.000,General,0.000,221.616
 Lights Internal Gains Nominal, THERMAL ZONE: SPACE 108 LIGHTING,LIGHTING,THERMAL ZONE: SPACE 108,25.92,6.5,233.280,9.000,36.000,0.000,0.000,0.000,1.000,1.000,General,0.000,221.616
 Lights Internal Gains Nominal, THERMAL ZONE: SPACE 109 LIGHTING,LIGHTING,THERMAL ZONE: SPACE 109,25.92,6.5,233.280,9.000,36.000,0.000,0.000,0.000,1.000,1.000,General,0.000,221.616
 Lights Internal Gains Nominal, THERMAL ZONE: SPACE 110 LIGHTING,LIGHTING,THERMAL ZONE: SPACE 110,25.92,6.5,233.280,9.000,36.000,0.000,0.000,0.000,1.000,1.000,General,0.000,221.616
 Lights Internal Gains Nominal, THERMAL ZONE: SPACE 111 LIGHTING,LIGHTING,THERMAL ZONE: SPACE 111,25.92,6.5,233.280,9.000,36.000,0.000,0.000,0.000,1.000,1.000,General,0.000,221.616
 Lights Internal Gains Nominal, THERMAL ZONE: SPACE 201 LIGHTING,LIGHTING,THERMAL ZONE: SPACE 201,25.92,6.5,233.280,9.000,36.000,0.000,0.000,0.000,1.000,1.000,General,0.000,221.616
 Lights Internal Gains Nominal, THERMAL ZONE: SPACE 202 LIGHTING,LIGHTING,THERMAL ZONE: SPACE 202,25.92,6.5,233.280,9.000,36.000,0.000,0.000,0.000,1.000,1.000,General,0.000,221.616
 Lights Internal Gains Nominal, THERMAL ZONE: SPACE 203 LIGHTING,LIGHTING,THERMAL ZONE: SPACE 203,25.92,6.5,233.280,9.000,36.000,0.000,0.000,0.000,1.000,1.000,General,0.000,221.616
 Lights Internal Gains Nominal, THERMAL ZONE: SPACE 204 LIGHTING,LIGHTING,THERMAL ZONE: SPACE 204,25.92,6.5,233.280,9.000,36.000,0.000,0.000,0.000,1.000,1.000,General,0.000,221.616
 Lights Internal Gains Nominal, THERMAL ZONE: SPACE 205 LIGHTING,LIGHTING,THERMAL ZONE: SPACE 205,25.92,6.5,233.280,9.000,36.000,0.000,0.000,0.000,1.000,1.000,General,0.000,221.616
 Lights Internal Gains Nominal, THERMAL ZONE: SPACE 206 LIGHTING,LIGHTING,THERMAL ZONE: SPACE 206,43.20,10.8,388.800,9.000,36.000,0.000,0.000,0.000,1.000,1.000,General,0.000,369.360
 Lights Internal Gains Nominal, THERMAL ZONE: SPACE 207 LIGHTING,LIGHTING,THERMAL ZONE: SPACE 207,25.92,6.5,233.280,9.000,36.000,0.000,0.000,0.000,1.000,1.000,General,0.000,221.616
 Lights Internal Gains Nominal, THERMAL ZONE: SPACE 208 LIGHTING,LIGHTING,THERMAL ZONE: SPACE 208,25.92,6.5,233.280,9.000,36.000,0.000,0.000,0.000,1.000,1.000,General,0.000,221.616
 Lights Internal Gains Nominal, THERMAL ZONE: SPACE 209 LIGHTING,LIGHTING,THERMAL ZONE: SPACE 209,25.92,6.5,233.280,9.000,36.000,0.000,0.000,0.000,1.000,1.000,General,0.000,221.616
 Lights Internal Gains Nominal, THERMAL ZONE: SPACE 210 LIGHTING,LIGHTING,THERMAL ZONE: SPACE 210,25.92,6.5,233.280,9.000,36.000,0.000,0.000,0.000,1.000,1.000,General,0.000,221.616
 Lights Internal Gains Nominal, THERMAL ZONE: SPACE 211 LIGHTING,LIGHTING,THERMAL ZONE: SPACE 211,25.92,6.5,233.280,9.000,36.000,0.000,0.000,0.000,1.000,1.000,General,0.000,221.616
 Lights Internal Gains Nominal, THERMAL ZONE: SPACE 301 LIGHTING,LIGHTING,THERMAL ZONE: SPACE 301,25.92,6.5,233.280,9.000,36.000,0.000,0.000,0.000,1.000,1.000,General,0.000,221.616
 Lights Internal Gains Nominal, THERMAL ZONE: SPACE 302 LIGHTING,LIGHTING,THERMAL ZONE: SPACE 302,25.92,6.5,233.280,9.000,36.000,0.000,0.000,0.000,1.000,1.000,General,0.000,221.616
 Lights Internal Gains Nominal, THERMAL ZONE: SPACE 303 LIGHTING,LIGHTING,THERMAL ZONE: SPACE 303,25.92,6.5,233.280,9.000,36.000,0.000,0.000,0.000,1.000,1.000,General,0.000,221.616
 Lights Internal Gains Nominal, THERMAL ZONE: SPACE 304 LIGHTING,LIGHTING,THERMAL ZONE: SPACE 304,25.92,6.5,233.280,9.000,36.000,0.000,0.000,0.000,1.000,1.000,General,0.000,221.616
 Lights Internal Gains Nominal, THERMAL ZONE: SPACE 305 LIGHTING,LIGHTING,THERMAL ZONE: SPACE 305,25.92,6.5,233.280,9.000,36.000,0.000,0.000,0.000,1.000,1.000,General,0.000,221.616
 Lights Internal Gains Nominal, THERMAL ZONE: SPACE 306 LIGHTING,LIGHTING,THERMAL ZONE: SPACE 306,43.20,10.8,388.800,9.000,36.000,0.000,0.000,0.000,1.000,1.000,General,0.000,369.360
 Lights Internal Gains Nominal, THERMAL ZONE: SPACE 307 LIGHTING,LIGHTING,THERMAL ZONE: SPACE 307,25.92,6.5,233.280,9.000,36.000,0.000,0.000,0.000,1.000,1.000,General,0.000,221.616
 Lights Internal Gains Nominal, THERMAL ZONE: SPACE 308 LIGHTING,LIGHTING,THERMAL ZONE: SPACE 308,25.92,6.5,233.280,9.000,36.000,0.000,0.000,0.000,1.000,1.000,General,0.000,221.616
 Lights Internal Gains Nominal, THERMAL ZONE: SPACE 309 LIGHTING,LIGHTING,THERMAL ZONE: SPACE 309,25.92,6.5,233.280,9.000,36.000,0.000,0.000,0.000,1.000,1.000,General,0.000,221.616
 Lights Internal Gains Nominal, THERMAL ZONE: SPACE 310 LIGHTING,LIGHTING,THERMAL ZONE: SPACE 310,25.92,6.5,233.280,9.000,36.000,0.000,0.000,0.000,1.000,1.000,General,0.000,221.616
 Lights Internal Gains Nominal, THERMAL ZONE: SPACE 311 LIGHTING,LIGHTING,THERMAL ZONE: SPACE 311,25.92,6.5,233.280,9.000,36.000,0.000,0.000,0.000,1.000,1.000,General,0.000,221.616
! <ElectricEquipment Internal Gains Nominal>,Name,Schedule Name,Zone Name,Zone Floor Area {m2},# Zone Occupants,Equipment Level {W},Equipment/Floor Area {W/m2},Equipment per person {W/person},Fraction Latent,Fraction Radiant,Fraction Lost,Fraction Convected,End-Use SubCategory,Nominal Minimum Equipment Level {W},Nominal Maximum Equipment Level {W}
 ElectricEquipment Internal Gains Nominal, THERMAL ZONE: SPACE 101 EQUIP,EQUIPMENT,THERMAL ZONE: SPACE 101,25.92,6.5,129.600,5.000,20.000,0.000,0.000,0.000,1.000,General,0.000,123.120
 ElectricEquipment Internal Gains Nominal, THERMAL ZONE: SPACE 102 EQUIP,EQUIPMENT,THERMAL ZONE: SPACE 102,25.92,6.5,129.600,5.000,20.000,0.000,0.000,0.000,1.000,General,0.000,123.120
 ElectricEquipment Internal Gains Nominal, THERMAL ZONE: SPACE 103 EQUIP,EQUIPMENT,THERMAL ZONE: SPACE 103,25.92,6.5,129.600,5.000,20.000,0.000,0.000,0.000,1.000,General,0.000,123.120
 ElectricEquipment Internal Gains Nominal, THERMAL ZONE: SPACE 104 EQUIP,EQUIPMENT,THERMAL ZONE: SPACE 104,25.92,6.5,129.600,5.000,20.000,0.000,0.000,0.000,1.000,General,0.000,123.120
 ElectricEquipment Internal Gains Nominal, THERMAL ZONE: SPACE 105 EQUIP,EQUIPMENT,THERMAL ZONE: SPACE 105,25.92,6.5,129.600,5.000,20.000,0.000,0.000,0.000,1.000,General,0.000,123.120
 ElectricEquipment Internal Gains Nominal, THERMAL ZONE: SPACE 106 EQUIP,EQUIPMENT,THERMAL ZONE: SPACE 106,43.20,10.8,216.000,5.000,20.000,0.000,0.000,0.000,1.000,General,0.000,205.200
 ElectricEquipment Internal Gains Nominal, THERMAL ZONE: SPACE 107 EQUIP,EQUIPMENT,THERMAL ZONE: SPACE 107,25.92,6.5,129.600,5.000,20.000,0.000,0.000,0.000,1.000,General,0.000,123.120
 ElectricEquipment Internal Gains Nominal, THERMAL ZONE: SPACE 108 EQUIP,EQUIPMENT,THERMAL ZONE: SPACE 108,25.92,6.5,129.600,5.000,20.000,0.000,0.000,0.000,1.000,General,0.000,123.120
 ElectricEquipment Internal Gains Nominal, THERMAL ZONE: SPACE 109 EQUIP,EQUIPMENT,THERMAL ZONE: SPACE 109,25.92,6.5,129.600,5.000,20.000,0.000,0.000,0.000,1.000,General,0.000,123.120
 ElectricEquipment Internal Gains Nominal, THERMAL ZONE: SPACE 110 EQUIP,EQUIPMENT,THERMAL ZONE: SPACE 110,25.92,6.5,129.600,5.000,20.000,0.000,0.000,0.000,1.000,General,0.000,123.120
 ElectricEquipment Internal Gains Nominal, THERMAL ZONE: SPACE 111 EQUIP,EQUIPMENT,THERMAL ZONE: SPACE 111,25.92,6.5,129.600,5.000,20.000,0.000,0.000,0.000,1.000,General,0.000,123.120
 ElectricEquipment Internal Gains Nominal, THERMAL ZONE: SPACE 201 EQUIP,EQUIPMENT,THERMAL ZONE: SPACE 201,25.92,6.5,129.600,5.000,20.000,0.000,0.000,0.000,1.000,General,0.000,123.120
 ElectricEquipment Internal Gains Nominal, THERMAL ZONE: SPACE 202 EQUIP,EQUIPMENT,THERMAL ZONE: SPACE 202,25.92,6.5,129.600,5.000,20.000,0.000,0.000,0.000,1.000,General,0.000,123.120
 ElectricEquipment Internal Gains Nominal, THERMAL ZONE: SPACE 203 EQUIP,EQUIPMENT,THERMAL ZONE: SPACE 203,25.92,6.5,129.600,5.000,20.000,0.000,0.000,0.000,1.000,General,0.000,123.120
 ElectricEquipment Internal Gains Nominal, THERMAL ZONE: SPACE 204 EQUIP,EQUIPMENT,THERMAL ZONE: SPACE 204,25.92,6.5,129.600,5.000,20.000,0.000,0.000,0.000,1.000,General,0.000,123.120
 ElectricEquipment Internal Gains Nominal, THERMAL ZONE: SPACE 205 EQUIP,EQUIPMENT,THERMAL ZONE: SPACE 205,25.92,6.5,129.600,5.000,20.000,0.000,0.000,0.000,1.000,General,0.000,123.120
 ElectricEquipment Internal Gains Nominal, THERMAL ZONE: SPACE 206 EQUIP,EQUIPMENT,THERMAL ZONE: SPACE 206,43.20,10.8,216.000,5.000,20.000,0.000,0.000,0.000,1.000,General,0.000,205.200
 ElectricEquipment Internal Gains Nominal, THERMAL ZONE: SPACE 207 EQUIP,EQUIPMENT,THERMAL ZONE: SPACE 207,25.92,6.5,129.600,5.000,20.000,0.000,0.000,0.000,1.000,General,0.000,123.120
 ElectricEquipment Internal Gains Nominal, THERMAL ZONE: SPACE 208 EQUIP,EQUIPMENT,THERMAL ZONE: SPACE 208,25.92,6.5,129.600,5.000,20.000,0.000,0.000,0.000,1.000,General,0.000,123.120
 ElectricEquipment Internal Gains Nominal, THERMAL ZONE: SPACE 209 EQUIP,EQUIPMENT,THERMAL ZONE: SPACE 209,25.92,6.5,129.600,5.000,20.000,0.000,0.000,0.000,1.000,General,0.000,123.120
 ElectricEquipment Internal Gains Nominal, THERMAL ZONE: SPACE 210 EQUIP,EQUIPMENT,THERMAL ZONE: SPACE 210,25.92,6.5,129.600,5.000,20.000,0.000,0.000,0.000,1.000,General,0.000,123.120
 ElectricEquipment Internal Gains Nominal, THERMAL ZONE: SPACE 211 EQUIP,EQUIPMENT,THERMAL ZONE: SPACE 211,25.92,6.5,129.600,5.000,20.000,0.000,0.000,0.000,1.000,General,0.000,123.120
 ElectricEquipment Internal Gains Nominal, THERMAL ZONE: SPACE 301 EQUIP,EQUIPMENT,THERMAL ZONE: SPACE 301,25.92,6.5,129.600,5.000,20.000,0.000,0.000,0.000,1.000,General,0.000,123.120
 ElectricEquipment Internal Gains Nominal, THERMAL ZONE: SPACE 302 EQUIP,EQUIPMENT,THERMAL ZONE: SPACE 302,25.92,6.5,129.600,5.000,20.000,0.000,0.000,0.000,1.000,General,0.000,123.120
 ElectricEquipment Internal Gains Nominal, THERMAL ZONE: SPACE 303 EQUIP,EQUIPMENT,THERMAL ZONE: SPACE 303,25.92,6.5,129.600,5.000,20.000,0.000,0.000,0.000,1.000,General,0.000,123.120
 ElectricEquipment Internal Gains Nominal, THERMAL ZONE: SPACE 304 EQUIP,EQUIPMENT,THERMAL ZONE: SPACE 304,25.92,6.5,129.600,5.000,20.000,0.000,0.000,0.000,1.000,General,0.000,123.120
 ElectricEquipment Internal Gains Nominal, THERMAL ZONE: SPACE 305 EQUIP,EQUIPMENT,THERMAL ZONE: SPACE 305,25.92,6.5,129.600,5.000,20.000,0.000,0.000,0.000,1.000,General,0.000,123.120
 ElectricEquipment Internal Gains Nominal, THERMAL ZONE: SPACE 306 EQUIP,EQUIPMENT,THERMAL ZONE: SPACE 306,43.20,10.8,216.000,5.000,20.000,0.000,0.000,0.000,1.000,General,0.000,205.200
 ElectricEquipment Internal Gains Nominal, THERMAL ZONE: SPACE 307 EQUIP,EQUIPMENT,THERMAL ZONE: SPACE 307,25.92,6.5,129.600,5.000,20.000,0.000,0.000,0.000,1.000,General,0.000,123.120
 ElectricEquipment Internal Gains Nominal, THERMAL ZONE: SPACE 308 EQUIP,EQUIPMENT,THERMAL ZONE: SPACE 308,25.92,6.5,129.600,5.000,20.000,0.000,0.000,0.000,1.000,General,0.000,123.120
 ElectricEquipment Internal Gains Nominal, THERMAL ZONE: SPACE 309 EQUIP,EQUIPMENT,THERMAL ZONE: SPACE 309,25.92,6.5,129.600,5.000,20.000,0.000,0.000,0.000,1.000,General,0.000,123.120
 ElectricEquipment Internal Gains Nominal, THERMAL ZONE: SPACE 310 EQUIP,EQUIPMENT,THERMAL ZONE: SPACE 310,25.92,6.5,129.600,5.000,20.000,0.000,0.000,0.000,1.000,General,0.000,123.120
 ElectricEquipment Internal Gains Nominal, THERMAL ZONE: SPACE 311 EQUIP,EQUIPMENT,THERMAL ZONE: SPACE 311,25.92,6.5,129.600,5.000,20.000,0.000,0.000,0.000,1.000,General,0.000,123.120
! <Shadowing/Sun Position Calculations Annual Simulations>, Calculation Method, Value {days}, Allowable Number Figures in Shadow Overlap {}, Polygon Clipping Algorithm, Sky Diffuse Modeling Algorithm
Shadowing/Sun Position Calculations Annual Simulations,AverageOverDaysInFrequency,20,15000,SutherlandHodgman,SimpleSkyDiffuseModeling
! <ZoneVentilation Airflow Stats Nominal>,Name,Schedule Name,Zone Name, Zone Floor Area {m2}, # Zone Occupants,Design Volume Flow Rate {m3/s},Volume Flow Rate/Floor Area {m3/s/m2},Volume Flow Rate/person Area {m3/s/person},ACH - Air Changes per Hour,Fan Type {Exhaust;Intake;Natural},Fan Pressure Rise {Pa},Fan Efficiency {},Equation A - Constant Term Coefficient {},Equation B - Temperature Term Coefficient {1/C},Equation C - Velocity Term Coefficient {s/m}, Equation D - Velocity Squared Term Coefficient {s2/m2},Minimum Indoor Temperature{C}/Schedule,Maximum Indoor Temperature{C}/Schedule,Delta Temperature{C}/Schedule,Minimum Outdoor Temperature{C}/Schedule,Maximum Outdoor Temperature{C}/Schedule,Maximum WindSpeed{m/s}
 ZoneVentilation Airflow Stats Nominal, THERMAL ZONE: SPACE 101 JIXIETONGFENG,OCUPACY,THERMAL ZONE: SPACE 101,25.92,6.5,5.378E-002,2.075E-003,8.300E-003,2.019,Balanced,10.000,1.0,1.000,0.000,0.000,0.000,-30.00,50.00,-100.00,-100.00,100.00,40.00
 ZoneVentilation Airflow Stats Nominal, THERMAL ZONE: SPACE 102 JIXIETONGFENG,OCUPACY,THERMAL ZONE: SPACE 102,25.92,6.5,5.378E-002,2.075E-003,8.300E-003,2.019,Balanced,10.000,1.0,1.000,0.000,0.000,0.000,-30.00,50.00,-100.00,-100.00,100.00,40.00
 ZoneVentilation Airflow Stats Nominal, THERMAL ZONE: SPACE 103 JIXIETONGFENG,OCUPACY,THERMAL ZONE: SPACE 103,25.92,6.5,5.378E-002,2.075E-003,8.300E-003,2.019,Balanced,10.000,1.0,1.000,0.000,0.000,0.000,-30.00,50.00,-100.00,-100.00,100.00,40.00
 ZoneVentilation Airflow Stats Nominal, THERMAL ZONE: SPACE 104 JIXIETONGFENG,OCUPACY,THERMAL ZONE: SPACE 104,25.92,6.5,5.378E-002,2.075E-003,8.300E-003,2.019,Balanced,10.000,1.0,1.000,0.000,0.000,0.000,-30.00,50.00,-100.00,-100.00,100.00,40.00
 ZoneVentilation Airflow Stats Nominal, THERMAL ZONE: SPACE 105 JIXIETONGFENG,OCUPACY,THERMAL ZONE: SPACE 105,25.92,6.5,5.378E-002,2.075E-003,8.300E-003,2.019,Balanced,10.000,1.0,1.000,0.000,0.000,0.000,-30.00,50.00,-100.00,-100.00,100.00,40.00
 ZoneVentilation Airflow Stats Nominal, THERMAL ZONE: SPACE 106 JIXIETONGFENG,OCUPACY,THERMAL ZONE: SPACE 106,43.20,10.8,8.964E-002,2.075E-003,8.300E-003,2.019,Balanced,10.000,1.0,1.000,0.000,0.000,0.000,-30.00,50.00,-100.00,-100.00,100.00,40.00
 ZoneVentilation Airflow Stats Nominal, THERMAL ZONE: SPACE 107 JIXIETONGFENG,OCUPACY,THERMAL ZONE: SPACE 107,25.92,6.5,5.378E-002,2.075E-003,8.300E-003,2.019,Balanced,10.000,1.0,1.000,0.000,0.000,0.000,-30.00,50.00,-100.00,-100.00,100.00,40.00
 ZoneVentilation Airflow Stats Nominal, THERMAL ZONE: SPACE 108 JIXIETONGFENG,OCUPACY,THERMAL ZONE: SPACE 108,25.92,6.5,5.378E-002,2.075E-003,8.300E-003,2.019,Balanced,10.000,1.0,1.000,0.000,0.000,0.000,-30.00,50.00,-100.00,-100.00,100.00,40.00
 ZoneVentilation Airflow Stats Nominal, THERMAL ZONE: SPACE 109 JIXIETONGFENG,OCUPACY,THERMAL ZONE: SPACE 109,25.92,6.5,5.378E-002,2.075E-003,8.300E-003,2.019,Balanced,10.000,1.0,1.000,0.000,0.000,0.000,-30.00,50.00,-100.00,-100.00,100.00,40.00
 ZoneVentilation Airflow Stats Nominal, THERMAL ZONE: SPACE 110 JIXIETONGFENG,OCUPACY,THERMAL ZONE: SPACE 110,25.92,6.5,5.378E-002,2.075E-003,8.300E-003,2.019,Balanced,10.000,1.0,1.000,0.000,0.000,0.000,-30.00,50.00,-100.00,-100.00,100.00,40.00
 ZoneVentilation Airflow Stats Nominal, THERMAL ZONE: SPACE 111 JIXIETONGFENG,OCUPACY,THERMAL ZONE: SPACE 111,25.92,6.5,5.378E-002,2.075E-003,8.300E-003,2.019,Balanced,10.000,1.0,1.000,0.000,0.000,0.000,-30.00,50.00,-100.00,-100.00,100.00,40.00
 ZoneVentilation Airflow Stats Nominal, THERMAL ZONE: SPACE 201 JIXIETONGFENG,OCUPACY,THERMAL ZONE: SPACE 201,25.92,6.5,5.378E-002,2.075E-003,8.300E-003,2.019,Balanced,10.000,1.0,1.000,0.000,0.000,0.000,-30.00,50.00,-100.00,-100.00,100.00,40.00
 ZoneVentilation Airflow Stats Nominal, THERMAL ZONE: SPACE 202 JIXIETONGFENG,OCUPACY,THERMAL ZONE: SPACE 202,25.92,6.5,5.378E-002,2.075E-003,8.300E-003,2.019,Balanced,10.000,1.0,1.000,0.000,0.000,0.000,-30.00,50.00,-100.00,-100.00,100.00,40.00
 ZoneVentilation Airflow Stats Nominal, THERMAL ZONE: SPACE 203 JIXIETONGFENG,OCUPACY,THERMAL ZONE: SPACE 203,25.92,6.5,5.378E-002,2.075E-003,8.300E-003,2.019,Balanced,10.000,1.0,1.000,0.000,0.000,0.000,-30.00,50.00,-100.00,-100.00,100.00,40.00
 ZoneVentilation Airflow Stats Nominal, THERMAL ZONE: SPACE 204 JIXIETONGFENG,OCUPACY,THERMAL ZONE: SPACE 204,25.92,6.5,5.378E-002,2.075E-003,8.300E-003,2.019,Balanced,10.000,1.0,1.000,0.000,0.000,0.000,-30.00,50.00,-100.00,-100.00,100.00,40.00
 ZoneVentilation Airflow Stats Nominal, THERMAL ZONE: SPACE 205 JIXIETONGFENG,OCUPACY,THERMAL ZONE: SPACE 205,25.92,6.5,5.378E-002,2.075E-003,8.300E-003,2.019,Balanced,10.000,1.0,1.000,0.000,0.000,0.000,-30.00,50.00,-100.00,-100.00,100.00,40.00
 ZoneVentilation Airflow Stats Nominal, THERMAL ZONE: SPACE 206 JIXIETONGFENG,OCUPACY,THERMAL ZONE: SPACE 206,43.20,10.8,8.964E-002,2.075E-003,8.300E-003,2.019,Balanced,10.000,1.0,1.000,0.000,0.000,0.000,-30.00,50.00,-100.00,-100.00,100.00,40.00
 ZoneVentilation Airflow Stats Nominal, THERMAL ZONE: SPACE 207 JIXIETONGFENG,OCUPACY,THERMAL ZONE: SPACE 207,25.92,6.5,5.378E-002,2.075E-003,8.300E-003,2.019,Balanced,10.000,1.0,1.000,0.000,0.000,0.000,-30.00,50.00,-100.00,-100.00,100.00,40.00
 ZoneVentilation Airflow Stats Nominal, THERMAL ZONE: SPACE 208 JIXIETONGFENG,OCUPACY,THERMAL ZONE: SPACE 208,25.92,6.5,5.378E-002,2.075E-003,8.300E-003,2.019,Balanced,10.000,1.0,1.000,0.000,0.000,0.000,-30.00,50.00,-100.00,-100.00,100.00,40.00
 ZoneVentilation Airflow Stats Nominal, THERMAL ZONE: SPACE 209 JIXIETONGFENG,OCUPACY,THERMAL ZONE: SPACE 209,25.92,6.5,5.378E-002,2.075E-003,8.300E-003,2.019,Balanced,10.000,1.0,1.000,0.000,0.000,0.000,-30.00,50.00,-100.00,-100.00,100.00,40.00
 ZoneVentilation Airflow Stats Nominal, THERMAL ZONE: SPACE 210 JIXIETONGFENG,OCUPACY,THERMAL ZONE: SPACE 210,25.92,6.5,5.378E-002,2.075E-003,8.300E-003,2.019,Balanced,10.000,1.0,1.000,0.000,0.000,0.000,-30.00,50.00,-100.00,-100.00,100.00,40.00
 ZoneVentilation Airflow Stats Nominal, THERMAL ZONE: SPACE 211 JIXIETONGFENG,OCUPACY,THERMAL ZONE: SPACE 211,25.92,6.5,5.378E-002,2.075E-003,8.300E-003,2.019,Balanced,10.000,1.0,1.000,0.000,0.000,0.000,-30.00,50.00,-100.00,-100.00,100.00,40.00
 ZoneVentilation Airflow Stats Nominal, THERMAL ZONE: SPACE 301 JIXIETONGFENG,OCUPACY,THERMAL ZONE: SPACE 301,25.92,6.5,5.378E-002,2.075E-003,8.300E-003,2.019,Balanced,10.000,1.0,1.000,0.000,0.000,0.000,-30.00,50.00,-100.00,-100.00,100.00,40.00
 ZoneVentilation Airflow Stats Nominal, THERMAL ZONE: SPACE 302 JIXIETONGFENG,OCUPACY,THERMAL ZONE: SPACE 302,25.92,6.5,5.378E-002,2.075E-003,8.300E-003,2.019,Balanced,10.000,1.0,1.000,0.000,0.000,0.000,-30.00,50.00,-100.00,-100.00,100.00,40.00
 ZoneVentilation Airflow Stats Nominal, THERMAL ZONE: SPACE 303 JIXIETONGFENG,OCUPACY,THERMAL ZONE: SPACE 303,25.92,6.5,5.378E-002,2.075E-003,8.300E-003,2.019,Balanced,10.000,1.0,1.000,0.000,0.000,0.000,-30.00,50.00,-100.00,-100.00,100.00,40.00
 ZoneVentilation Airflow Stats Nominal, THERMAL ZONE: SPACE 304 JIXIETONGFENG,OCUPACY,THERMAL ZONE: SPACE 304,25.92,6.5,5.378E-002,2.075E-003,8.300E-003,2.019,Balanced,10.000,1.0,1.000,0.000,0.000,0.000,-30.00,50.00,-100.00,-100.00,100.00,40.00
 ZoneVentilation Airflow Stats Nominal, THERMAL ZONE: SPACE 305 JIXIETONGFENG,OCUPACY,THERMAL ZONE: SPACE 305,25.92,6.5,5.378E-002,2.075E-003,8.300E-003,2.019,Balanced,10.000,1.0,1.000,0.000,0.000,0.000,-30.00,50.00,-100.00,-100.00,100.00,40.00
 ZoneVentilation Airflow Stats Nominal, THERMAL ZONE: SPACE 306 JIXIETONGFENG,OCUPACY,THERMAL ZONE: SPACE 306,43.20,10.8,8.964E-002,2.075E-003,8.300E-003,2.019,Balanced,10.000,1.0,1.000,0.000,0.000,0.000,-30.00,50.00,-100.00,-100.00,100.00,40.00
 ZoneVentilation Airflow Stats Nominal, THERMAL ZONE: SPACE 307 JIXIETONGFENG,OCUPACY,THERMAL ZONE: SPACE 307,25.92,6.5,5.378E-002,2.075E-003,8.300E-003,2.019,Balanced,10.000,1.0,1.000,0.000,0.000,0.000,-30.00,50.00,-100.00,-100.00,100.00,40.00
 ZoneVentilation Airflow Stats Nominal, THERMAL ZONE: SPACE 308 JIXIETONGFENG,OCUPACY,THERMAL ZONE: SPACE 308,25.92,6.5,5.378E-002,2.075E-003,8.300E-003,2.019,Balanced,10.000,1.0,1.000,0.000,0.000,0.000,-30.00,50.00,-100.00,-100.00,100.00,40.00
 ZoneVentilation Airflow Stats Nominal, THERMAL ZONE: SPACE 309 JIXIETONGFENG,OCUPACY,THERMAL ZONE: SPACE 309,25.92,6.5,5.378E-002,2.075E-003,8.300E-003,2.019,Balanced,10.000,1.0,1.000,0.000,0.000,0.000,-30.00,50.00,-100.00,-100.00,100.00,40.00
 ZoneVentilation Airflow Stats Nominal, THERMAL ZONE: SPACE 310 JIXIETONGFENG,OCUPACY,THERMAL ZONE: SPACE 310,25.92,6.5,5.378E-002,2.075E-003,8.300E-003,2.019,Balanced,10.000,1.0,1.000,0.000,0.000,0.000,-30.00,50.00,-100.00,-100.00,100.00,40.00
 ZoneVentilation Airflow Stats Nominal, THERMAL ZONE: SPACE 311 JIXIETONGFENG,OCUPACY,THERMAL ZONE: SPACE 311,25.92,6.5,5.378E-002,2.075E-003,8.300E-003,2.019,Balanced,10.000,1.0,1.000,0.000,0.000,0.000,-30.00,50.00,-100.00,-100.00,100.00,40.00
! <AirFlow Model>, Simple
 AirFlow Model, Simple
! <RoomAir Model>, Zone Name, Mixing/Mundt/UCSDDV/UCSDCV/UCSDUFI/UCSDUFE/User Defined
RoomAir Model,THERMAL ZONE: SPACE 101,Mixing/Well-Stirred
RoomAir Model,THERMAL ZONE: SPACE 102,Mixing/Well-Stirred
RoomAir Model,THERMAL ZONE: SPACE 103,Mixing/Well-Stirred
RoomAir Model,THERMAL ZONE: SPACE 104,Mixing/Well-Stirred
RoomAir Model,THERMAL ZONE: SPACE 105,Mixing/Well-Stirred
RoomAir Model,THERMAL ZONE: SPACE 106,Mixing/Well-Stirred
RoomAir Model,THERMAL ZONE: SPACE 107,Mixing/Well-Stirred
RoomAir Model,THERMAL ZONE: SPACE 108,Mixing/Well-Stirred
RoomAir Model,THERMAL ZONE: SPACE 109,Mixing/Well-Stirred
RoomAir Model,THERMAL ZONE: SPACE 110,Mixing/Well-Stirred
RoomAir Model,THERMAL ZONE: SPACE 111,Mixing/Well-Stirred
RoomAir Model,THERMAL ZONE: SPACE 201,Mixing/Well-Stirred
RoomAir Model,THERMAL ZONE: SPACE 202,Mixing/Well-Stirred
RoomAir Model,THERMAL ZONE: SPACE 203,Mixing/Well-Stirred
RoomAir Model,THERMAL ZONE: SPACE 204,Mixing/Well-Stirred
RoomAir Model,THERMAL ZONE: SPACE 205,Mixing/Well-Stirred
RoomAir Model,THERMAL ZONE: SPACE 206,Mixing/Well-Stirred
RoomAir Model,THERMAL ZONE: SPACE 207,Mixing/Well-Stirred
RoomAir Model,THERMAL ZONE: SPACE 208,Mixing/Well-Stirred
RoomAir Model,THERMAL ZONE: SPACE 209,Mixing/Well-Stirred
RoomAir Model,THERMAL ZONE: SPACE 210,Mixing/Well-Stirred
RoomAir Model,THERMAL ZONE: SPACE 211,Mixing/Well-Stirred
RoomAir Model,THERMAL ZONE: SPACE 301,Mixing/Well-Stirred
RoomAir Model,THERMAL ZONE: SPACE 302,Mixing/Well-Stirred
RoomAir Model,THERMAL ZONE: SPACE 303,Mixing/Well-Stirred
RoomAir Model,THERMAL ZONE: SPACE 304,Mixing/Well-Stirred
RoomAir Model,THERMAL ZONE: SPACE 305,Mixing/Well-Stirred
RoomAir Model,THERMAL ZONE: SPACE 306,Mixing/Well-Stirred
RoomAir Model,THERMAL ZONE: SPACE 307,Mixing/Well-Stirred
RoomAir Model,THERMAL ZONE: SPACE 308,Mixing/Well-Stirred
RoomAir Model,THERMAL ZONE: SPACE 309,Mixing/Well-Stirred
RoomAir Model,THERMAL ZONE: SPACE 310,Mixing/Well-Stirred
RoomAir Model,THERMAL ZONE: SPACE 311,Mixing/Well-Stirred
! <AirflowNetwork Model:Control>, No Multizone or Distribution/Multizone with Distribution/Multizone without Distribution/Multizone with Distribution only during Fan Operation
AirflowNetwork Model:Control,NoMultizoneOrDistribution
! <Zone Volume Capacitance Multiplier>, Sensible Heat Capacity Multiplier, Moisture Capacity Multiplier, Carbon Dioxide Capacity Multiplier, Generic Contaminant Capacity Multiplier
Zone Volume Capacitance Multiplier,   1.000 ,   1.000,   1.000,   1.000
! <Load Timesteps in Zone Design Calculation Averaging Window>, Value
 Load Timesteps in Zone Design Calculation Averaging Window,    6
! <Heating Sizing Factor Information>, Sizing Factor ID, Value
 Heating Sizing Factor Information, Global,   1.2500    
 Heating Sizing Factor Information, Zone THERMAL ZONE: SPACE 101,   1.2500    
 Heating Sizing Factor Information, Zone THERMAL ZONE: SPACE 102,   1.2500    
 Heating Sizing Factor Information, Zone THERMAL ZONE: SPACE 103,   1.2500    
 Heating Sizing Factor Information, Zone THERMAL ZONE: SPACE 104,   1.2500    
 Heating Sizing Factor Information, Zone THERMAL ZONE: SPACE 105,   1.2500    
 Heating Sizing Factor Information, Zone THERMAL ZONE: SPACE 106,   1.2500    
 Heating Sizing Factor Information, Zone THERMAL ZONE: SPACE 107,   1.2500    
 Heating Sizing Factor Information, Zone THERMAL ZONE: SPACE 108,   1.2500    
 Heating Sizing Factor Information, Zone THERMAL ZONE: SPACE 109,   1.2500    
 Heating Sizing Factor Information, Zone THERMAL ZONE: SPACE 110,   1.2500    
 Heating Sizing Factor Information, Zone THERMAL ZONE: SPACE 111,   1.2500    
 Heating Sizing Factor Information, Zone THERMAL ZONE: SPACE 201,   1.2500    
 Heating Sizing Factor Information, Zone THERMAL ZONE: SPACE 202,   1.2500    
 Heating Sizing Factor Information, Zone THERMAL ZONE: SPACE 203,   1.2500    
 Heating Sizing Factor Information, Zone THERMAL ZONE: SPACE 204,   1.2500    
 Heating Sizing Factor Information, Zone THERMAL ZONE: SPACE 205,   1.2500    
 Heating Sizing Factor Information, Zone THERMAL ZONE: SPACE 206,   1.2500    
 Heating Sizing Factor Information, Zone THERMAL ZONE: SPACE 207,   1.2500    
 Heating Sizing Factor Information, Zone THERMAL ZONE: SPACE 208,   1.2500    
 Heating Sizing Factor Information, Zone THERMAL ZONE: SPACE 209,   1.2500    
 Heating Sizing Factor Information, Zone THERMAL ZONE: SPACE 210,   1.2500    
 Heating Sizing Factor Information, Zone THERMAL ZONE: SPACE 211,   1.2500    
 Heating Sizing Factor Information, Zone THERMAL ZONE: SPACE 301,   1.2500    
 Heating Sizing Factor Information, Zone THERMAL ZONE: SPACE 302,   1.2500    
 Heating Sizing Factor Information, Zone THERMAL ZONE: SPACE 303,   1.2500    
 Heating Sizing Factor Information, Zone THERMAL ZONE: SPACE 304,   1.2500    
 Heating Sizing Factor Information, Zone THERMAL ZONE: SPACE 305,   1.2500    
 Heating Sizing Factor Information, Zone THERMAL ZONE: SPACE 306,   1.2500    
 Heating Sizing Factor Information, Zone THERMAL ZONE: SPACE 307,   1.2500    
 Heating Sizing Factor Information, Zone THERMAL ZONE: SPACE 308,   1.2500    
 Heating Sizing Factor Information, Zone THERMAL ZONE: SPACE 309,   1.2500    
 Heating Sizing Factor Information, Zone THERMAL ZONE: SPACE 310,   1.2500    
 Heating Sizing Factor Information, Zone THERMAL ZONE: SPACE 311,   1.2500    
! <Cooling Sizing Factor Information>, Sizing Factor ID, Value
 Cooling Sizing Factor Information, Global,   1.1500    
 Cooling Sizing Factor Information, Zone THERMAL ZONE: SPACE 101,   1.1500    
 Cooling Sizing Factor Information, Zone THERMAL ZONE: SPACE 102,   1.1500    
 Cooling Sizing Factor Information, Zone THERMAL ZONE: SPACE 103,   1.1500    
 Cooling Sizing Factor Information, Zone THERMAL ZONE: SPACE 104,   1.1500    
 Cooling Sizing Factor Information, Zone THERMAL ZONE: SPACE 105,   1.1500    
 Cooling Sizing Factor Information, Zone THERMAL ZONE: SPACE 106,   1.1500    
 Cooling Sizing Factor Information, Zone THERMAL ZONE: SPACE 107,   1.1500    
 Cooling Sizing Factor Information, Zone THERMAL ZONE: SPACE 108,   1.1500    
 Cooling Sizing Factor Information, Zone THERMAL ZONE: SPACE 109,   1.1500    
 Cooling Sizing Factor Information, Zone THERMAL ZONE: SPACE 110,   1.1500    
 Cooling Sizing Factor Information, Zone THERMAL ZONE: SPACE 111,   1.1500    
 Cooling Sizing Factor Information, Zone THERMAL ZONE: SPACE 201,   1.1500    
 Cooling Sizing Factor Information, Zone THERMAL ZONE: SPACE 202,   1.1500    
 Cooling Sizing Factor Information, Zone THERMAL ZONE: SPACE 203,   1.1500    
 Cooling Sizing Factor Information, Zone THERMAL ZONE: SPACE 204,   1.1500    
 Cooling Sizing Factor Information, Zone THERMAL ZONE: SPACE 205,   1.1500    
 Cooling Sizing Factor Information, Zone THERMAL ZONE: SPACE 206,   1.1500    
 Cooling Sizing Factor Information, Zone THERMAL ZONE: SPACE 207,   1.1500    
 Cooling Sizing Factor Information, Zone THERMAL ZONE: SPACE 208,   1.1500    
 Cooling Sizing Factor Information, Zone THERMAL ZONE: SPACE 209,   1.1500    
 Cooling Sizing Factor Information, Zone THERMAL ZONE: SPACE 210,   1.1500    
 Cooling Sizing Factor Information, Zone THERMAL ZONE: SPACE 211,   1.1500    
 Cooling Sizing Factor Information, Zone THERMAL ZONE: SPACE 301,   1.1500    
 Cooling Sizing Factor Information, Zone THERMAL ZONE: SPACE 302,   1.1500    
 Cooling Sizing Factor Information, Zone THERMAL ZONE: SPACE 303,   1.1500    
 Cooling Sizing Factor Information, Zone THERMAL ZONE: SPACE 304,   1.1500    
 Cooling Sizing Factor Information, Zone THERMAL ZONE: SPACE 305,   1.1500    
 Cooling Sizing Factor Information, Zone THERMAL ZONE: SPACE 306,   1.1500    
 Cooling Sizing Factor Information, Zone THERMAL ZONE: SPACE 307,   1.1500    
 Cooling Sizing Factor Information, Zone THERMAL ZONE: SPACE 308,   1.1500    
 Cooling Sizing Factor Information, Zone THERMAL ZONE: SPACE 309,   1.1500    
 Cooling Sizing Factor Information, Zone THERMAL ZONE: SPACE 310,   1.1500    
 Cooling Sizing Factor Information, Zone THERMAL ZONE: SPACE 311,   1.1500    
! <Zone Sizing Information>, Zone Name, Load Type, Calc Des Load {W}, User Des Load {W}, Calc Des Air Flow Rate {m3/s}, User Des Air Flow Rate {m3/s}, Design Day Name, Date/Time of Peak, Temperature at Peak {C}, Humidity Ratio at Peak {kgWater/kgDryAir}, Floor Area {m2}, # Occupants, Calc Outdoor Air Flow Rate {m3/s}, Calc DOAS Heat Addition Rate {W}
 Zone Sizing Information, THERMAL ZONE: SPACE 101, Cooling, 1262.07146, 1451.38218, 8.84786E-002, 0.10175, ANN CLG 4% CONDNS DB =>MWB, 7/21 15:00:00, 35.70000, 2.01594E-002, 25.92000, 6.48000, 6.11712E-002, 0.00000
 Zone Sizing Information, THERMAL ZONE: SPACE 101, Heating, 1526.84039, 1908.55049, 4.00572E-002, 6.11712E-002, ANN HTG 99.6% CONDNS DB, 1/21 10:00:00, -4.10000, 2.68154E-003, 25.92000, 6.48000, 6.11712E-002, 0.00000
 Zone Sizing Information, THERMAL ZONE: SPACE 102, Cooling, 1216.95509, 1399.49835, 8.53203E-002, 9.81184E-002, ANN CLG 4% CONDNS DB =>MWB, 7/21 15:00:00, 35.70000, 2.01594E-002, 25.92000, 6.48000, 6.11712E-002, 0.00000
 Zone Sizing Information, THERMAL ZONE: SPACE 102, Heating, 1095.66882, 1369.58602, 2.87463E-002, 6.11712E-002, ANN HTG 99.6% CONDNS DB, 1/21 10:00:00, -4.10000, 2.68154E-003, 25.92000, 6.48000, 6.11712E-002, 0.00000
 Zone Sizing Information, THERMAL ZONE: SPACE 103, Cooling, 1209.82293, 1391.29637, 8.48216E-002, 9.75449E-002, ANN CLG 4% CONDNS DB =>MWB, 7/21 15:00:00, 35.70000, 2.01594E-002, 25.92000, 6.48000, 6.11712E-002, 0.00000
 Zone Sizing Information, THERMAL ZONE: SPACE 103, Heating, 1052.01548, 1315.01934, 2.76011E-002, 6.11712E-002, ANN HTG 99.6% CONDNS DB, 1/21 10:00:00, -4.10000, 2.68154E-003, 25.92000, 6.48000, 6.11712E-002, 0.00000
 Zone Sizing Information, THERMAL ZONE: SPACE 104, Cooling, 1217.30230, 1399.89764, 8.53446E-002, 9.81463E-002, ANN CLG 4% CONDNS DB =>MWB, 7/21 15:00:00, 35.70000, 2.01594E-002, 25.92000, 6.48000, 6.11712E-002, 0.00000
 Zone Sizing Information, THERMAL ZONE: SPACE 104, Heating, 1095.56406, 1369.45508, 2.87436E-002, 6.11712E-002, ANN HTG 99.6% CONDNS DB, 1/21 10:00:00, -4.10000, 2.68154E-003, 25.92000, 6.48000, 6.11712E-002, 0.00000
 Zone Sizing Information, THERMAL ZONE: SPACE 105, Cooling, 1264.32418, 1453.97281, 8.86364E-002, 0.10193, ANN CLG 4% CONDNS DB =>MWB, 7/21 15:00:00, 35.70000, 2.01594E-002, 25.92000, 6.48000, 6.11712E-002, 0.00000
 Zone Sizing Information, THERMAL ZONE: SPACE 105, Heating, 1525.68935, 1907.11169, 4.00270E-002, 6.11712E-002, ANN HTG 99.6% CONDNS DB, 1/21 10:00:00, -4.10000, 2.68154E-003, 25.92000, 6.48000, 6.11712E-002, 0.00000
 Zone Sizing Information, THERMAL ZONE: SPACE 106, Cooling, 2014.59043, 2316.77900, 0.14124, 0.16243, ANN CLG 4% CONDNS DB =>MWB, 7/21 15:00:00, 35.70000, 2.01594E-002, 43.20000, 10.80000, 0.10195, 0.00000
 Zone Sizing Information, THERMAL ZONE: SPACE 106, Heating, 1781.94430, 2227.43038, 4.67520E-002, 0.10195, ANN HTG 99.6% CONDNS DB, 1/21 10:00:00, -4.10000, 2.68154E-003, 43.20000, 10.80000, 0.10195, 0.00000
 Zone Sizing Information, THERMAL ZONE: SPACE 107, Cooling, 1263.67212, 1453.22293, 8.85907E-002, 0.10188, ANN CLG 4% CONDNS DB =>MWB, 7/21 15:00:00, 35.70000, 2.01594E-002, 25.92000, 6.48000, 6.11712E-002, 0.00000
 Zone Sizing Information, THERMAL ZONE: SPACE 107, Heating, 1526.26758, 1907.83447, 4.00422E-002, 6.11712E-002, ANN HTG 99.6% CONDNS DB, 1/21 10:00:00, -4.10000, 2.68154E-003, 25.92000, 6.48000, 6.11712E-002, 0.00000
 Zone Sizing Information, THERMAL ZONE: SPACE 108, Cooling, 1217.50688, 1400.13291, 8.53589E-002, 9.81628E-002, ANN CLG 4% CONDNS DB =>MWB, 7/21 15:00:00, 35.70000, 2.01594E-002, 25.92000, 6.48000, 6.11712E-002, 0.00000
 Zone Sizing Information, THERMAL ZONE: SPACE 108, Heating, 1094.85290, 1368.56612, 2.87249E-002, 6.11712E-002, ANN HTG 99.6% CONDNS DB, 1/21 10:00:00, -4.10000, 2.68154E-003, 25.92000, 6.48000, 6.11712E-002, 0.00000
 Zone Sizing Information, THERMAL ZONE: SPACE 109, Cooling, 1205.30884, 1386.10516, 8.45063E-002, 9.71823E-002, ANN CLG 4% CONDNS DB =>MWB, 7/21 15:00:00, 35.70000, 2.01594E-002, 25.92000, 6.48000, 6.11712E-002, 0.00000
 Zone Sizing Information, THERMAL ZONE: SPACE 109, Heating, 1050.32811, 1312.91014, 2.75569E-002, 6.11712E-002, ANN HTG 99.6% CONDNS DB, 1/21 10:00:00, -4.10000, 2.68154E-003, 25.92000, 6.48000, 6.11712E-002, 0.00000
 Zone Sizing Information, THERMAL ZONE: SPACE 110, Cooling, 1190.25410, 1368.79222, 8.34572E-002, 9.59758E-002, ANN CLG 4% CONDNS DB =>MWB, 7/21 15:00:00, 35.70000, 2.01594E-002, 25.92000, 6.48000, 6.11712E-002, 0.00000
 Zone Sizing Information, THERMAL ZONE: SPACE 110, Heating, 1087.47092, 1359.33864, 2.85313E-002, 6.11712E-002, ANN HTG 99.6% CONDNS DB, 1/21 10:00:00, -4.10000, 2.68154E-003, 25.92000, 6.48000, 6.11712E-002, 0.00000
 Zone Sizing Information, THERMAL ZONE: SPACE 111, Cooling, 1126.35252, 1295.30540, 7.89717E-002, 9.08175E-002, ANN CLG 4% CONDNS DB =>MWB, 7/21 15:00:00, 35.70000, 2.01594E-002, 25.92000, 6.48000, 6.11712E-002, 0.00000
 Zone Sizing Information, THERMAL ZONE: SPACE 111, Heating, 1475.45720, 1844.32150, 3.87093E-002, 6.11712E-002, ANN HTG 99.6% CONDNS DB, 1/21 10:00:00, -4.10000, 2.68154E-003, 25.92000, 6.48000, 6.11712E-002, 0.00000
 Zone Sizing Information, THERMAL ZONE: SPACE 201, Cooling, 1320.76556, 1518.88039, 9.25897E-002, 0.10648, ANN CLG 4% CONDNS DB =>MWB, 7/21 15:00:00, 35.70000, 2.01594E-002, 25.92000, 6.48000, 6.11712E-002, 0.00000
 Zone Sizing Information, THERMAL ZONE: SPACE 201, Heating, 1572.48658, 1965.60822, 4.12546E-002, 6.11712E-002, ANN HTG 99.6% CONDNS DB, 1/21 10:00:00, -4.10000, 2.68154E-003, 25.92000, 6.48000, 6.11712E-002, 0.00000
 Zone Sizing Information, THERMAL ZONE: SPACE 202, Cooling, 1269.04836, 1459.40561, 8.89665E-002, 0.10231, ANN CLG 4% CONDNS DB =>MWB, 7/21 15:00:00, 35.70000, 2.01594E-002, 25.92000, 6.48000, 6.11712E-002, 0.00000
 Zone Sizing Information, THERMAL ZONE: SPACE 202, Heating, 1139.63196, 1424.53994, 2.98997E-002, 6.11712E-002, ANN HTG 99.6% CONDNS DB, 1/21 10:00:00, -4.10000, 2.68154E-003, 25.92000, 6.48000, 6.11712E-002, 0.00000
 Zone Sizing Information, THERMAL ZONE: SPACE 203, Cooling, 1261.03141, 1450.18612, 8.84050E-002, 0.10167, ANN CLG 4% CONDNS DB =>MWB, 7/21 15:00:00, 35.70000, 2.01594E-002, 25.92000, 6.48000, 6.11712E-002, 0.00000
 Zone Sizing Information, THERMAL ZONE: SPACE 203, Heating, 1096.09284, 1370.11605, 2.87575E-002, 6.11712E-002, ANN HTG 99.6% CONDNS DB, 1/21 10:00:00, -4.10000, 2.68154E-003, 25.92000, 6.48000, 6.11712E-002, 0.00000
 Zone Sizing Information, THERMAL ZONE: SPACE 204, Cooling, 1269.19108, 1459.56974, 8.89765E-002, 0.10232, ANN CLG 4% CONDNS DB =>MWB, 7/21 15:00:00, 35.70000, 2.01594E-002, 25.92000, 6.48000, 6.11712E-002, 0.00000
 Zone Sizing Information, THERMAL ZONE: SPACE 204, Heating, 1139.54091, 1424.42614, 2.98973E-002, 6.11712E-002, ANN HTG 99.6% CONDNS DB, 1/21 10:00:00, -4.10000, 2.68154E-003, 25.92000, 6.48000, 6.11712E-002, 0.00000
 Zone Sizing Information, THERMAL ZONE: SPACE 205, Cooling, 1321.55368, 1519.78673, 9.26449E-002, 0.10654, ANN CLG 4% CONDNS DB =>MWB, 7/21 15:00:00, 35.70000, 2.01594E-002, 25.92000, 6.48000, 6.11712E-002, 0.00000
 Zone Sizing Information, THERMAL ZONE: SPACE 205, Heating, 1571.50988, 1964.38735, 4.12290E-002, 6.11712E-002, ANN HTG 99.6% CONDNS DB, 1/21 10:00:00, -4.10000, 2.68154E-003, 25.92000, 6.48000, 6.11712E-002, 0.00000
 Zone Sizing Information, THERMAL ZONE: SPACE 206, Cooling, 2115.08495, 2432.34770, 0.14827, 0.17051, ANN CLG 4% CONDNS DB =>MWB, 7/21 15:00:00, 35.70000, 2.01594E-002, 43.20000, 10.80000, 0.10195, 0.00000
 Zone Sizing Information, THERMAL ZONE: SPACE 206, Heating, 1854.69004, 2318.36256, 4.86605E-002, 0.10195, ANN HTG 99.6% CONDNS DB, 1/21 10:00:00, -4.10000, 2.68154E-003, 43.20000, 10.80000, 0.10195, 0.00000
 Zone Sizing Information, THERMAL ZONE: SPACE 207, Cooling, 1321.25512, 1519.44339, 9.26240E-002, 0.10652, ANN CLG 4% CONDNS DB =>MWB, 7/21 15:00:00, 35.70000, 2.01594E-002, 25.92000, 6.48000, 6.11712E-002, 0.00000
 Zone Sizing Information, THERMAL ZONE: SPACE 207, Heating, 1571.94725, 1964.93407, 4.12405E-002, 6.11712E-002, ANN HTG 99.6% CONDNS DB, 1/21 10:00:00, -4.10000, 2.68154E-003, 25.92000, 6.48000, 6.11712E-002, 0.00000
 Zone Sizing Information, THERMAL ZONE: SPACE 208, Cooling, 1269.23845, 1459.62422, 8.89798E-002, 0.10233, ANN CLG 4% CONDNS DB =>MWB, 7/21 15:00:00, 35.70000, 2.01594E-002, 25.92000, 6.48000, 6.11712E-002, 0.00000
 Zone Sizing Information, THERMAL ZONE: SPACE 208, Heating, 1138.95854, 1423.69818, 2.98820E-002, 6.11712E-002, ANN HTG 99.6% CONDNS DB, 1/21 10:00:00, -4.10000, 2.68154E-003, 25.92000, 6.48000, 6.11712E-002, 0.00000
 Zone Sizing Information, THERMAL ZONE: SPACE 209, Cooling, 1259.89243, 1448.87629, 8.83252E-002, 0.10157, ANN CLG 4% CONDNS DB =>MWB, 7/21 15:00:00, 35.70000, 2.01594E-002, 25.92000, 6.48000, 6.11712E-002, 0.00000
 Zone Sizing Information, THERMAL ZONE: SPACE 209, Heating, 1095.25320, 1369.06650, 2.87354E-002, 6.11712E-002, ANN HTG 99.6% CONDNS DB, 1/21 10:00:00, -4.10000, 2.68154E-003, 25.92000, 6.48000, 6.11712E-002, 0.00000
 Zone Sizing Information, THERMAL ZONE: SPACE 210, Cooling, 1263.32678, 1452.82580, 8.85657E-002, 0.10185, ANN CLG 4% CONDNS DB =>MWB, 7/21 15:00:00, 35.70000, 2.01594E-002, 25.92000, 6.48000, 6.11712E-002, 0.00000
 Zone Sizing Information, THERMAL ZONE: SPACE 210, Heating, 1138.06035, 1422.57543, 2.98584E-002, 6.11712E-002, ANN HTG 99.6% CONDNS DB, 1/21 10:00:00, -4.10000, 2.68154E-003, 25.92000, 6.48000, 6.11712E-002, 0.00000
 Zone Sizing Information, THERMAL ZONE: SPACE 211, Cooling, 1302.30592, 1497.65181, 9.12966E-002, 0.10499, ANN CLG 4% CONDNS DB =>MWB, 7/21 15:00:00, 35.70000, 2.01594E-002, 25.92000, 6.48000, 6.11712E-002, 0.00000
 Zone Sizing Information, THERMAL ZONE: SPACE 211, Heating, 1567.48209, 1959.35261, 4.11233E-002, 6.11712E-002, ANN HTG 99.6% CONDNS DB, 1/21 10:00:00, -4.10000, 2.68154E-003, 25.92000, 6.48000, 6.11712E-002, 0.00000
 Zone Sizing Information, THERMAL ZONE: SPACE 301, Cooling, 1333.35839, 1533.36214, 9.34721E-002, 0.10749, ANN CLG 4% CONDNS DB =>MWB, 7/21 15:00:00, 35.70000, 2.01594E-002, 25.92000, 6.48000, 6.11712E-002, 0.00000
 Zone Sizing Information, THERMAL ZONE: SPACE 301, Heating, 2086.19240, 2607.74050, 5.47301E-002, 6.84127E-002, ANN HTG 99.6% CONDNS DB, 1/21 10:00:00, -4.10000, 2.68154E-003, 25.92000, 6.48000, 6.11712E-002, 0.00000
 Zone Sizing Information, THERMAL ZONE: SPACE 302, Cooling, 1281.91885, 1474.20668, 8.98680E-002, 0.10335, ANN CLG 4% CONDNS DB =>MWB, 7/21 15:00:00, 35.70000, 2.01594E-002, 25.92000, 6.48000, 6.11712E-002, 0.00000
 Zone Sizing Information, THERMAL ZONE: SPACE 302, Heating, 1658.55913, 2073.19891, 4.35125E-002, 6.11712E-002, ANN HTG 99.6% CONDNS DB, 1/21 10:00:00, -4.10000, 2.68154E-003, 25.92000, 6.48000, 6.11712E-002, 0.00000
 Zone Sizing Information, THERMAL ZONE: SPACE 303, Cooling, 1274.38567, 1465.54353, 8.93403E-002, 0.10274, ANN CLG 4% CONDNS DB =>MWB, 7/21 15:00:00, 35.70000, 2.01594E-002, 25.92000, 6.48000, 6.11712E-002, 0.00000
 Zone Sizing Information, THERMAL ZONE: SPACE 303, Heating, 1618.23986, 2022.79983, 4.24548E-002, 6.11712E-002, ANN HTG 99.6% CONDNS DB, 1/21 10:00:00, -4.10000, 2.68154E-003, 25.92000, 6.48000, 6.11712E-002, 0.00000
 Zone Sizing Information, THERMAL ZONE: SPACE 304, Cooling, 1281.90156, 1474.18680, 8.98668E-002, 0.10335, ANN CLG 4% CONDNS DB =>MWB, 7/21 15:00:00, 35.70000, 2.01594E-002, 25.92000, 6.48000, 6.11712E-002, 0.00000
 Zone Sizing Information, THERMAL ZONE: SPACE 304, Heating, 1658.50199, 2073.12748, 4.35110E-002, 6.11712E-002, ANN HTG 99.6% CONDNS DB, 1/21 10:00:00, -4.10000, 2.68154E-003, 25.92000, 6.48000, 6.11712E-002, 0.00000
 Zone Sizing Information, THERMAL ZONE: SPACE 305, Cooling, 1333.14520, 1533.11698, 9.34571E-002, 0.10748, ANN CLG 4% CONDNS DB =>MWB, 7/21 15:00:00, 35.70000, 2.01594E-002, 25.92000, 6.48000, 6.11712E-002, 0.00000
 Zone Sizing Information, THERMAL ZONE: SPACE 305, Heating, 2085.54608, 2606.93260, 5.47132E-002, 6.83915E-002, ANN HTG 99.6% CONDNS DB, 1/21 10:00:00, -4.10000, 2.68154E-003, 25.92000, 6.48000, 6.11712E-002, 0.00000
 Zone Sizing Information, THERMAL ZONE: SPACE 306, Cooling, 2139.33482, 2460.23504, 0.14997, 0.17247, ANN CLG 4% CONDNS DB =>MWB, 7/21 15:00:00, 35.70000, 2.01594E-002, 43.20000, 10.80000, 0.10195, 0.00000
 Zone Sizing Information, THERMAL ZONE: SPACE 306, Heating, 2737.13857, 3421.42322, 7.18098E-002, 0.10195, ANN HTG 99.6% CONDNS DB, 1/21 10:00:00, -4.10000, 2.68154E-003, 43.20000, 10.80000, 0.10195, 0.00000
 Zone Sizing Information, THERMAL ZONE: SPACE 307, Cooling, 1333.23418, 1533.21930, 9.34634E-002, 0.10748, ANN CLG 4% CONDNS DB =>MWB, 7/21 15:00:00, 35.70000, 2.01594E-002, 25.92000, 6.48000, 6.11712E-002, 0.00000
 Zone Sizing Information, THERMAL ZONE: SPACE 307, Heating, 2085.83783, 2607.29729, 5.47208E-002, 6.84010E-002, ANN HTG 99.6% CONDNS DB, 1/21 10:00:00, -4.10000, 2.68154E-003, 25.92000, 6.48000, 6.11712E-002, 0.00000
 Zone Sizing Information, THERMAL ZONE: SPACE 308, Cooling, 1281.73727, 1473.99786, 8.98553E-002, 0.10333, ANN CLG 4% CONDNS DB =>MWB, 7/21 15:00:00, 35.70000, 2.01594E-002, 25.92000, 6.48000, 6.11712E-002, 0.00000
 Zone Sizing Information, THERMAL ZONE: SPACE 308, Heating, 1658.10927, 2072.63659, 4.35007E-002, 6.11712E-002, ANN HTG 99.6% CONDNS DB, 1/21 10:00:00, -4.10000, 2.68154E-003, 25.92000, 6.48000, 6.11712E-002, 0.00000
 Zone Sizing Information, THERMAL ZONE: SPACE 309, Cooling, 1273.99673, 1465.09624, 8.93131E-002, 0.10271, ANN CLG 4% CONDNS DB =>MWB, 7/21 15:00:00, 35.70000, 2.01594E-002, 25.92000, 6.48000, 6.11712E-002, 0.00000
 Zone Sizing Information, THERMAL ZONE: SPACE 309, Heating, 1617.75264, 2022.19079, 4.24421E-002, 6.11712E-002, ANN HTG 99.6% CONDNS DB, 1/21 10:00:00, -4.10000, 2.68154E-003, 25.92000, 6.48000, 6.11712E-002, 0.00000
 Zone Sizing Information, THERMAL ZONE: SPACE 310, Cooling, 1280.95908, 1473.10295, 8.98008E-002, 0.10327, ANN CLG 4% CONDNS DB =>MWB, 7/21 15:00:00, 35.70000, 2.01594E-002, 25.92000, 6.48000, 6.11712E-002, 0.00000
 Zone Sizing Information, THERMAL ZONE: SPACE 310, Heating, 1657.97173, 2072.46466, 4.34971E-002, 6.11712E-002, ANN HTG 99.6% CONDNS DB, 1/21 10:00:00, -4.10000, 2.68154E-003, 25.92000, 6.48000, 6.11712E-002, 0.00000
 Zone Sizing Information, THERMAL ZONE: SPACE 311, Cooling, 1331.20208, 1530.88239, 9.33210E-002, 0.10732, ANN CLG 4% CONDNS DB =>MWB, 7/21 15:00:00, 35.70000, 2.01594E-002, 25.92000, 6.48000, 6.11712E-002, 0.00000
 Zone Sizing Information, THERMAL ZONE: SPACE 311, Heating, 2084.95941, 2606.19926, 5.46978E-002, 6.83722E-002, ANN HTG 99.6% CONDNS DB, 1/21 10:00:00, -4.10000, 2.68154E-003, 25.92000, 6.48000, 6.11712E-002, 0.00000
! <Component Sizing Information>, Component Type, Component Name, Input Field Description, Value
 Component Sizing Information, ZoneHVAC:PackagedTerminalHeatPump, THERMAL ZONE: SPACE 101 PTHP, Design Size Cooling Supply Air Flow Rate [m3/s], 0.10175
 Component Sizing Information, ZoneHVAC:PackagedTerminalHeatPump, THERMAL ZONE: SPACE 101 PTHP, Design Size Heating Supply Air Flow Rate [m3/s], 0.10175
 Component Sizing Information, ZoneHVAC:PackagedTerminalHeatPump, THERMAL ZONE: SPACE 101 PTHP, User-Specified No Load Supply Air Flow Rate [m3/s], 0.00000
 Component Sizing Information, ZoneHVAC:PackagedTerminalHeatPump, THERMAL ZONE: SPACE 101 PTHP, Design Size Outdoor Air Flow Rate During Cooling Operation [m3/s], 6.11712E-002
 Component Sizing Information, ZoneHVAC:PackagedTerminalHeatPump, THERMAL ZONE: SPACE 101 PTHP, Design Size Outdoor Air Flow Rate During Heating Operation [m3/s], 6.11712E-002
 Component Sizing Information, ZoneHVAC:PackagedTerminalHeatPump, THERMAL ZONE: SPACE 101 PTHP, Design Size Outdoor Air Flow Rate When No Cooling or Heating is Needed [m3/s], 0.00000
 Component Sizing Information, ZoneHVAC:PackagedTerminalHeatPump, THERMAL ZONE: SPACE 101 PTHP, Design Size Maximum Supply Air Temperature from Supplemental Heater [C], 50.00000
 Component Sizing Information, Coil:Cooling:DX:SingleSpeed, THERMAL ZONE: SPACE 101 PTHP COOLING COIL, Design Size Rated Air Flow Rate [m3/s], 0.10175
 Component Sizing Information, Coil:Cooling:DX:SingleSpeed, THERMAL ZONE: SPACE 101 PTHP COOLING COIL, Design Size Gross Rated Total Cooling Capacity [W], 2526.70504
 Component Sizing Information, Coil:Cooling:DX:SingleSpeed, THERMAL ZONE: SPACE 101 PTHP COOLING COIL, Design Size Gross Rated Sensible Heat Ratio, 0.67608
! <DX Cooling Coil Standard Rating Information>, Component Type, Component Name, Standard Rating (Net) Cooling Capacity {W}, Standard Rated Net COP {W/W}, EER {Btu/W-h}, SEER {Btu/W-h}, IEER {Btu/W-h}
 DX Cooling Coil Standard Rating Information, Coil:Cooling:DX:SingleSpeed, THERMAL ZONE: SPACE 101 PTHP COOLING COIL, 2447.6, 2.66, 9.07, 9.63, 9.52
 Component Sizing Information, Coil:Heating:DX:SingleSpeed, THERMAL ZONE: SPACE 101 PTHP HEATING COIL, Design Size Rated Air Flow Rate [m3/s], 0.10175
 Component Sizing Information, Coil:Heating:DX:SingleSpeed, THERMAL ZONE: SPACE 101 PTHP HEATING COIL, Design Size Gross Rated Heating Capacity [W], 2526.70504
! <DX Heating Coil Standard Rating Information>, Component Type, Component Name, High Temperature Heating (net) Rating Capacity {W}, Low Temperature Heating (net) Rating Capacity {W}, HSPF {Btu/W-h}, Region Number
 DX Heating Coil Standard Rating Information, Coil:Heating:DX:SingleSpeed, THERMAL ZONE: SPACE 101 PTHP HEATING COIL, 2608.5, 1435.3, 6.23, 4
 Component Sizing Information, Fan:OnOff, THERMAL ZONE: SPACE 101 PTHP SUPPLY FAN, Design Size Maximum Flow Rate [m3/s], 0.10175
 Component Sizing Information, Coil:Heating:Electric, THERMAL ZONE: SPACE 101 PTHP SUPP HEATING COIL, Design Size Nominal Capacity [W], 3940.75249
 Component Sizing Information, ZoneHVAC:PackagedTerminalHeatPump, THERMAL ZONE: SPACE 102 PTHP, Design Size Cooling Supply Air Flow Rate [m3/s], 9.81184E-002
 Component Sizing Information, ZoneHVAC:PackagedTerminalHeatPump, THERMAL ZONE: SPACE 102 PTHP, Design Size Heating Supply Air Flow Rate [m3/s], 9.81184E-002
 Component Sizing Information, ZoneHVAC:PackagedTerminalHeatPump, THERMAL ZONE: SPACE 102 PTHP, User-Specified No Load Supply Air Flow Rate [m3/s], 0.00000
 Component Sizing Information, ZoneHVAC:PackagedTerminalHeatPump, THERMAL ZONE: SPACE 102 PTHP, Design Size Outdoor Air Flow Rate During Cooling Operation [m3/s], 6.11712E-002
 Component Sizing Information, ZoneHVAC:PackagedTerminalHeatPump, THERMAL ZONE: SPACE 102 PTHP, Design Size Outdoor Air Flow Rate During Heating Operation [m3/s], 6.11712E-002
 Component Sizing Information, ZoneHVAC:PackagedTerminalHeatPump, THERMAL ZONE: SPACE 102 PTHP, Design Size Outdoor Air Flow Rate When No Cooling or Heating is Needed [m3/s], 0.00000
 Component Sizing Information, ZoneHVAC:PackagedTerminalHeatPump, THERMAL ZONE: SPACE 102 PTHP, Design Size Maximum Supply Air Temperature from Supplemental Heater [C], 50.00000
 Component Sizing Information, Coil:Cooling:DX:SingleSpeed, THERMAL ZONE: SPACE 102 PTHP COOLING COIL, Design Size Rated Air Flow Rate [m3/s], 9.81184E-002
 Component Sizing Information, Coil:Cooling:DX:SingleSpeed, THERMAL ZONE: SPACE 102 PTHP COOLING COIL, Design Size Gross Rated Total Cooling Capacity [W], 2436.51238
 Component Sizing Information, Coil:Cooling:DX:SingleSpeed, THERMAL ZONE: SPACE 102 PTHP COOLING COIL, Design Size Gross Rated Sensible Heat Ratio, 0.67608
 DX Cooling Coil Standard Rating Information, Coil:Cooling:DX:SingleSpeed, THERMAL ZONE: SPACE 102 PTHP COOLING COIL, 2360.2, 2.66, 9.07, 9.63, 9.52
 Component Sizing Information, Coil:Heating:DX:SingleSpeed, THERMAL ZONE: SPACE 102 PTHP HEATING COIL, Design Size Rated Air Flow Rate [m3/s], 9.81184E-002
 Component Sizing Information, Coil:Heating:DX:SingleSpeed, THERMAL ZONE: SPACE 102 PTHP HEATING COIL, Design Size Gross Rated Heating Capacity [W], 2436.51238
 DX Heating Coil Standard Rating Information, Coil:Heating:DX:SingleSpeed, THERMAL ZONE: SPACE 102 PTHP HEATING COIL, 2515.3, 1384.1, 6.22, 4
 Component Sizing Information, Fan:OnOff, THERMAL ZONE: SPACE 102 PTHP SUPPLY FAN, Design Size Maximum Flow Rate [m3/s], 9.81184E-002
 Component Sizing Information, Coil:Heating:Electric, THERMAL ZONE: SPACE 102 PTHP SUPP HEATING COIL, Design Size Nominal Capacity [W], 3940.75249
 Component Sizing Information, ZoneHVAC:PackagedTerminalHeatPump, THERMAL ZONE: SPACE 103 PTHP, Design Size Cooling Supply Air Flow Rate [m3/s], 9.75449E-002
 Component Sizing Information, ZoneHVAC:PackagedTerminalHeatPump, THERMAL ZONE: SPACE 103 PTHP, Design Size Heating Supply Air Flow Rate [m3/s], 9.75449E-002
 Component Sizing Information, ZoneHVAC:PackagedTerminalHeatPump, THERMAL ZONE: SPACE 103 PTHP, User-Specified No Load Supply Air Flow Rate [m3/s], 0.00000
 Component Sizing Information, ZoneHVAC:PackagedTerminalHeatPump, THERMAL ZONE: SPACE 103 PTHP, Design Size Outdoor Air Flow Rate During Cooling Operation [m3/s], 6.11712E-002
 Component Sizing Information, ZoneHVAC:PackagedTerminalHeatPump, THERMAL ZONE: SPACE 103 PTHP, Design Size Outdoor Air Flow Rate During Heating Operation [m3/s], 6.11712E-002
 Component Sizing Information, ZoneHVAC:PackagedTerminalHeatPump, THERMAL ZONE: SPACE 103 PTHP, Design Size Outdoor Air Flow Rate When No Cooling or Heating is Needed [m3/s], 0.00000
 Component Sizing Information, ZoneHVAC:PackagedTerminalHeatPump, THERMAL ZONE: SPACE 103 PTHP, Design Size Maximum Supply Air Temperature from Supplemental Heater [C], 50.00000
 Component Sizing Information, Coil:Cooling:DX:SingleSpeed, THERMAL ZONE: SPACE 103 PTHP COOLING COIL, Design Size Rated Air Flow Rate [m3/s], 9.75449E-002
 Component Sizing Information, Coil:Cooling:DX:SingleSpeed, THERMAL ZONE: SPACE 103 PTHP COOLING COIL, Design Size Gross Rated Total Cooling Capacity [W], 2422.27168
 Component Sizing Information, Coil:Cooling:DX:SingleSpeed, THERMAL ZONE: SPACE 103 PTHP COOLING COIL, Design Size Gross Rated Sensible Heat Ratio, 0.67608
 DX Cooling Coil Standard Rating Information, Coil:Cooling:DX:SingleSpeed, THERMAL ZONE: SPACE 103 PTHP COOLING COIL, 2346.5, 2.66, 9.07, 9.63, 9.52
 Component Sizing Information, Coil:Heating:DX:SingleSpeed, THERMAL ZONE: SPACE 103 PTHP HEATING COIL, Design Size Rated Air Flow Rate [m3/s], 9.75449E-002
 Component Sizing Information, Coil:Heating:DX:SingleSpeed, THERMAL ZONE: SPACE 103 PTHP HEATING COIL, Design Size Gross Rated Heating Capacity [W], 2422.27168
 DX Heating Coil Standard Rating Information, Coil:Heating:DX:SingleSpeed, THERMAL ZONE: SPACE 103 PTHP HEATING COIL, 2500.6, 1376.0, 6.22, 4
 Component Sizing Information, Fan:OnOff, THERMAL ZONE: SPACE 103 PTHP SUPPLY FAN, Design Size Maximum Flow Rate [m3/s], 9.75449E-002
 Component Sizing Information, Coil:Heating:Electric, THERMAL ZONE: SPACE 103 PTHP SUPP HEATING COIL, Design Size Nominal Capacity [W], 3940.75249
[...]
! <Environment:Design Day Misc>,DayOfYear,ASHRAE A Coeff,ASHRAE B Coeff,ASHRAE C Coeff,Solar Constant-Annual Variation,Eq of Time {minutes}, Solar Declination Angle {deg}, Solar Model
Environment:Design Day Data,-2.20,5.00,DefaultMultipliers,101048,20,1.6,0.00,No,No
Environment:Design Day Misc, 21,1229.0,0.1415,5.7310E-002,1.0,-11.15,-20.1,ASHRAEClearSky
Environment:WarmupDays,  6
! <Warmup Convergence Information>,Zone Name,Environment Type/Name,Average Warmup Temperature Difference {deltaC},Std Dev Warmup Temperature Difference {deltaC},Max Temperature Pass/Fail Convergence,Min Temperature Pass/Fail Convergence,Average Warmup Load Difference {W},Std Dev Warmup Load Difference {W},Heating Load Pass/Fail Convergence,Cooling Load Pass/Fail Convergence
 Warmup Convergence Information,THERMAL ZONE: SPACE 101,SizingPeriod: ANN HTG 99.6% CONDNS DB,2.2367615617E-005,3.9504955882E-005,Pass,Pass,1.3289300761E-002,5.7212245601E-002,Pass,Pass
 Warmup Convergence Information,THERMAL ZONE: SPACE 102,SizingPeriod: ANN HTG 99.6% CONDNS DB,1.8136917093E-005,3.7511671460E-005,Pass,Pass,2.3715316082E-002,0.1075576590,Pass,Pass
 Warmup Convergence Information,THERMAL ZONE: SPACE 103,SizingPeriod: ANN HTG 99.6% CONDNS DB,1.7814727485E-005,3.7768307374E-005,Pass,Pass,2.5979429453E-002,0.1196696236,Pass,Pass
 Warmup Convergence Information,THERMAL ZONE: SPACE 104,SizingPeriod: ANN HTG 99.6% CONDNS DB,1.8130115860E-005,3.7498496944E-005,Pass,Pass,2.3720793241E-002,0.1075841090,Pass,Pass
 Warmup Convergence Information,THERMAL ZONE: SPACE 105,SizingPeriod: ANN HTG 99.6% CONDNS DB,2.2313469644E-005,3.9402514540E-005,Pass,Pass,1.3303718308E-002,5.7269487433E-002,Pass,Pass
 Warmup Convergence Information,THERMAL ZONE: SPACE 106,SizingPeriod: ANN HTG 99.6% CONDNS DB,1.7625627471E-005,3.7174094556E-005,Pass,Pass,2.5191597589E-002,0.1151215629,Pass,Pass
 Warmup Convergence Information,THERMAL ZONE: SPACE 107,SizingPeriod: ANN HTG 99.6% CONDNS DB,2.2331636054E-005,3.9435221975E-005,Pass,Pass,1.3296703420E-002,5.7240927727E-002,Pass,Pass
 Warmup Convergence Information,THERMAL ZONE: SPACE 108,SizingPeriod: ANN HTG 99.6% CONDNS DB,1.8119121481E-005,3.7487073027E-005,Pass,Pass,2.3750972330E-002,0.1077337830,Pass,Pass
 Warmup Convergence Information,THERMAL ZONE: SPACE 109,SizingPeriod: ANN HTG 99.6% CONDNS DB,1.7871413026E-005,3.7938425831E-005,Pass,Pass,2.6070661916E-002,0.1201579807,Pass,Pass
 Warmup Convergence Information,THERMAL ZONE: SPACE 110,SizingPeriod: ANN HTG 99.6% CONDNS DB,1.8498026093E-005,3.8512347911E-005,Pass,Pass,2.4058837814E-002,0.1094336737,Pass,Pass
 Warmup Convergence Information,THERMAL ZONE: SPACE 111,SizingPeriod: ANN HTG 99.6% CONDNS DB,2.4596603930E-005,4.4970752993E-005,Pass,Pass,1.4072529476E-002,6.1141965828E-002,Pass,Pass
 Warmup Convergence Information,THERMAL ZONE: SPACE 201,SizingPeriod: ANN HTG 99.6% CONDNS DB,2.1820502624E-005,3.7928596764E-005,Pass,Pass,1.2797118236E-002,5.5285322238E-002,Pass,Pass
 Warmup Convergence Information,THERMAL ZONE: SPACE 202,SizingPeriod: ANN HTG 99.6% CONDNS DB,1.7783596223E-005,3.5883557293E-005,Pass,Pass,2.1979098303E-002,9.9237951755E-002,Pass,Pass
 Warmup Convergence Information,THERMAL ZONE: SPACE 203,SizingPeriod: ANN HTG 99.6% CONDNS DB,1.7460208844E-005,3.6058901124E-005,Pass,Pass,2.3826172893E-002,0.1088893228,Pass,Pass
 Warmup Convergence Information,THERMAL ZONE: SPACE 204,SizingPeriod: ANN HTG 99.6% CONDNS DB,1.7780421715E-005,3.5878295093E-005,Pass,Pass,2.1983000007E-002,9.9256405362E-002,Pass,Pass
 Warmup Convergence Information,THERMAL ZONE: SPACE 205,SizingPeriod: ANN HTG 99.6% CONDNS DB,2.1796791413E-005,3.7888013862E-005,Pass,Pass,1.2808409059E-002,5.5330187460E-002,Pass,Pass
 Warmup Convergence Information,THERMAL ZONE: SPACE 206,SizingPeriod: ANN HTG 99.6% CONDNS DB,1.7135944432E-005,3.5192342133E-005,Pass,Pass,2.3187193513E-002,0.1052440013,Pass,Pass
 Warmup Convergence Information,THERMAL ZONE: SPACE 207,SizingPeriod: ANN HTG 99.6% CONDNS DB,2.1806437588E-005,3.7904301413E-005,Pass,Pass,1.2803461520E-002,5.5310466099E-002,Pass,Pass
 Warmup Convergence Information,THERMAL ZONE: SPACE 208,SizingPeriod: ANN HTG 99.6% CONDNS DB,1.7773427505E-005,3.5872872675E-005,Pass,Pass,2.2003550047E-002,9.9355744473E-002,Pass,Pass
 Warmup Convergence Information,THERMAL ZONE: SPACE 209,SizingPeriod: ANN HTG 99.6% CONDNS DB,1.7468908639E-005,3.6095268392E-005,Pass,Pass,2.3863145015E-002,0.1090761436,Pass,Pass
 Warmup Convergence Information,THERMAL ZONE: SPACE 210,SizingPeriod: ANN HTG 99.6% CONDNS DB,1.7854831323E-005,3.6076125353E-005,Pass,Pass,2.2038489677E-002,9.9534157567E-002,Pass,Pass
 Warmup Convergence Information,THERMAL ZONE: SPACE 211,SizingPeriod: ANN HTG 99.6% CONDNS DB,2.2095432879E-005,3.8545939621E-005,Pass,Pass,1.2855333319E-002,5.5542824412E-002,Pass,Pass
 Warmup Convergence Information,THERMAL ZONE: SPACE 301,SizingPeriod: ANN HTG 99.6% CONDNS DB,2.7122423408E-005,4.4304243348E-005,Pass,Pass,8.7044568798E-003,3.7095143533E-002,Pass,Pass
 Warmup Convergence Information,THERMAL ZONE: SPACE 302,SizingPeriod: ANN HTG 99.6% CONDNS DB,2.3403327059E-005,4.0335702539E-005,Pass,Pass,1.1906551919E-002,5.1038603202E-002,Pass,Pass
 Warmup Convergence Information,THERMAL ZONE: SPACE 303,SizingPeriod: ANN HTG 99.6% CONDNS DB,2.3103700239E-005,4.0143605493E-005,Pass,Pass,1.2337093261E-002,5.2984092783E-002,Pass,Pass
 Warmup Convergence Information,THERMAL ZONE: SPACE 304,SizingPeriod: ANN HTG 99.6% CONDNS DB,2.3402996572E-005,4.0335652473E-005,Pass,Pass,1.1907296089E-002,5.1041309960E-002,Pass,Pass
 Warmup Convergence Information,THERMAL ZONE: SPACE 305,SizingPeriod: ANN HTG 99.6% CONDNS DB,2.7120758809E-005,4.4303488272E-005,Pass,Pass,8.7080685015E-003,3.7107155366E-002,Pass,Pass
 Warmup Convergence Information,THERMAL ZONE: SPACE 306,SizingPeriod: ANN HTG 99.6% CONDNS DB,2.2660975814E-005,3.9260488557E-005,Pass,Pass,1.2119761614E-002,5.1863814305E-002,Pass,Pass
 Warmup Convergence Information,THERMAL ZONE: SPACE 307,SizingPeriod: ANN HTG 99.6% CONDNS DB,2.7121619226E-005,4.4304149932E-005,Pass,Pass,8.7064887427E-003,3.7101884600E-002,Pass,Pass
 Warmup Convergence Information,THERMAL ZONE: SPACE 308,SizingPeriod: ANN HTG 99.6% CONDNS DB,2.3402108382E-005,4.0336722833E-005,Pass,Pass,1.1911167221E-002,5.1056303163E-002,Pass,Pass
 Warmup Convergence Information,THERMAL ZONE: SPACE 309,SizingPeriod: ANN HTG 99.6% CONDNS DB,2.3105965914E-005,4.0152441910E-005,Pass,Pass,1.2342443693E-002,5.3005111728E-002,Pass,Pass
 Warmup Convergence Information,THERMAL ZONE: SPACE 310,SizingPeriod: ANN HTG 99.6% CONDNS DB,2.3415485747E-005,4.0365677873E-005,Pass,Pass,1.1912716518E-002,5.1062700991E-002,Pass,Pass
 Warmup Convergence Information,THERMAL ZONE: SPACE 311,SizingPeriod: ANN HTG 99.6% CONDNS DB,2.7155446506E-005,4.4377163919E-005,Pass,Pass,8.7113309976E-003,3.7119395766E-002,Pass,Pass
Environment,ANN CLG 4% CONDNS DB =>MWB,SizingPeriod:DesignDay,07/21,07/21,SummerDesignDay,1,N/A,N/A,N/A,N/A,N/A,N/A
Environment:Daylight Saving,No,SizingPeriod:DesignDay
Environment:Design Day Data,35.70,6.30,DefaultMultipliers,101048,220,3.3,0.00,No,No
Environment:Design Day Misc,202,1084.4,0.2082,0.1365,1.0,-6.23,20.6,ASHRAEClearSky
Environment:WarmupDays,  6
 Warmup Convergence Information,THERMAL ZONE: SPACE 101,SizingPeriod: ANN CLG 4% CONDNS DB =>MWB,3.1807777593E-002,0.1039098885,Pass,Pass,4.6298799142E-002,0.2479702459,Pass,Pass
 Warmup Convergence Information,THERMAL ZONE: SPACE 102,SizingPeriod: ANN CLG 4% CONDNS DB =>MWB,3.1635172800E-002,0.1069578912,Pass,Pass,5.7067601586E-002,0.3029252569,Pass,Pass
 Warmup Convergence Information,THERMAL ZONE: SPACE 103,SizingPeriod: ANN CLG 4% CONDNS DB =>MWB,3.1594766689E-002,0.1073547619,Pass,Pass,5.8886601090E-002,0.3126186436,Pass,Pass
 Warmup Convergence Information,THERMAL ZONE: SPACE 104,SizingPeriod: ANN CLG 4% CONDNS DB =>MWB,3.1637790487E-002,0.1069454396,Pass,Pass,5.6971738160E-002,0.3023447347,Pass,Pass
 Warmup Convergence Information,THERMAL ZONE: SPACE 105,SizingPeriod: ANN CLG 4% CONDNS DB =>MWB,3.1777312693E-002,0.1036981460,Pass,Pass,4.5809089785E-002,0.2450626450,Pass,Pass
 Warmup Convergence Information,THERMAL ZONE: SPACE 106,SizingPeriod: ANN CLG 4% CONDNS DB =>MWB,3.0746275071E-002,0.1055541420,Pass,Pass,5.6972077560E-002,0.2976501746,Pass,Pass
 Warmup Convergence Information,THERMAL ZONE: SPACE 107,SizingPeriod: ANN CLG 4% CONDNS DB =>MWB,3.1790684287E-002,0.1037728200,Pass,Pass,4.5962446754E-002,0.2459613918,Pass,Pass
 Warmup Convergence Information,THERMAL ZONE: SPACE 108,SizingPeriod: ANN CLG 4% CONDNS DB =>MWB,3.1656058112E-002,0.1069947523,Pass,Pass,5.6783518759E-002,0.3009869458,Pass,Pass
 Warmup Convergence Information,THERMAL ZONE: SPACE 109,SizingPeriod: ANN CLG 4% CONDNS DB =>MWB,3.1610863313E-002,0.1077350184,Pass,Pass,5.9811248413E-002,0.3177698498,Pass,Pass
 Warmup Convergence Information,THERMAL ZONE: SPACE 110,SizingPeriod: ANN CLG 4% CONDNS DB =>MWB,3.1356479250E-002,0.1077521995,Pass,Pass,6.5399588223E-002,0.3582612669,Pass,Pass
 Warmup Convergence Information,THERMAL ZONE: SPACE 111,SizingPeriod: ANN CLG 4% CONDNS DB =>MWB,3.0932311863E-002,0.1040967606,Pass,Pass,0.1623318466,1.0361598193,Pass,Pass
 Warmup Convergence Information,THERMAL ZONE: SPACE 201,SizingPeriod: ANN CLG 4% CONDNS DB =>MWB,3.0997566845E-002,9.8361165440E-002,Pass,Pass,3.6919259973E-002,0.1888450443,Pass,Pass
 Warmup Convergence Information,THERMAL ZONE: SPACE 202,SizingPeriod: ANN CLG 4% CONDNS DB =>MWB,3.1599510779E-002,0.1031000226,Pass,Pass,4.3974408474E-002,0.2302227882,Pass,Pass
 Warmup Convergence Information,THERMAL ZONE: SPACE 203,SizingPeriod: ANN CLG 4% CONDNS DB =>MWB,3.1570518854E-002,0.1035921779,Pass,Pass,4.5082016521E-002,0.2358309315,Pass,Pass
 Warmup Convergence Information,THERMAL ZONE: SPACE 204,SizingPeriod: ANN CLG 4% CONDNS DB =>MWB,3.1600354590E-002,0.1030918893,Pass,Pass,4.3954547801E-002,0.2301125361,Pass,Pass
 Warmup Convergence Information,THERMAL ZONE: SPACE 205,SizingPeriod: ANN CLG 4% CONDNS DB =>MWB,3.0976730359E-002,9.8248247426E-002,Pass,Pass,3.6825709272E-002,0.1880804875,Pass,Pass
 Warmup Convergence Information,THERMAL ZONE: SPACE 206,SizingPeriod: ANN CLG 4% CONDNS DB =>MWB,3.0826264439E-002,0.1015869657,Pass,Pass,4.2658128617E-002,0.2188831275,Pass,Pass
 Warmup Convergence Information,THERMAL ZONE: SPACE 207,SizingPeriod: ANN CLG 4% CONDNS DB =>MWB,3.0987659172E-002,9.8293069739E-002,Pass,Pass,3.6857774032E-002,0.1883450525,Pass,Pass
 Warmup Convergence Information,THERMAL ZONE: SPACE 208,SizingPeriod: ANN CLG 4% CONDNS DB =>MWB,3.1602335427E-002,0.1031000877,Pass,Pass,4.3916466001E-002,0.2298244421,Pass,Pass
 Warmup Convergence Information,THERMAL ZONE: SPACE 209,SizingPeriod: ANN CLG 4% CONDNS DB =>MWB,3.1585159719E-002,0.1037119209,Pass,Pass,4.5168043185E-002,0.2360998645,Pass,Pass
 Warmup Convergence Information,THERMAL ZONE: SPACE 210,SizingPeriod: ANN CLG 4% CONDNS DB =>MWB,3.1628520871E-002,0.1035723749,Pass,Pass,4.4644178672E-002,0.2335244640,Pass,Pass
 Warmup Convergence Information,THERMAL ZONE: SPACE 211,SizingPeriod: ANN CLG 4% CONDNS DB =>MWB,3.1375992995E-002,0.1008328354,Pass,Pass,3.8510453386E-002,0.2032543562,Pass,Pass
 Warmup Convergence Information,THERMAL ZONE: SPACE 301,SizingPeriod: ANN CLG 4% CONDNS DB =>MWB,3.0332725454E-002,9.6211429291E-002,Pass,Pass,3.5270991182E-002,0.1761634593,Pass,Pass
 Warmup Convergence Information,THERMAL ZONE: SPACE 302,SizingPeriod: ANN CLG 4% CONDNS DB =>MWB,3.1369514863E-002,0.1019943569,Pass,Pass,4.2419010878E-002,0.2240545221,Pass,Pass
 Warmup Convergence Information,THERMAL ZONE: SPACE 303,SizingPeriod: ANN CLG 4% CONDNS DB =>MWB,3.1329092127E-002,0.1023494231,Pass,Pass,4.3375426475E-002,0.2288631733,Pass,Pass
 Warmup Convergence Information,THERMAL ZONE: SPACE 304,SizingPeriod: ANN CLG 4% CONDNS DB =>MWB,3.1369141549E-002,0.1019935673,Pass,Pass,4.2421222603E-002,0.2240688680,Pass,Pass
 Warmup Convergence Information,THERMAL ZONE: SPACE 305,SizingPeriod: ANN CLG 4% CONDNS DB =>MWB,3.0337494506E-002,9.6230531600E-002,Pass,Pass,3.5298867792E-002,0.1763618652,Pass,Pass
 Warmup Convergence Information,THERMAL ZONE: SPACE 306,SizingPeriod: ANN CLG 4% CONDNS DB =>MWB,3.0625279013E-002,0.1004145497,Pass,Pass,4.1033463793E-002,0.2125680772,Pass,Pass
 Warmup Convergence Information,THERMAL ZONE: SPACE 307,SizingPeriod: ANN CLG 4% CONDNS DB =>MWB,3.0335343195E-002,9.6223283586E-002,Pass,Pass,3.5286601143E-002,0.1762769656,Pass,Pass
 Warmup Convergence Information,THERMAL ZONE: SPACE 308,SizingPeriod: ANN CLG 4% CONDNS DB =>MWB,3.1371444887E-002,0.1020051942,Pass,Pass,4.2441914877E-002,0.2241757278,Pass,Pass
 Warmup Convergence Information,THERMAL ZONE: SPACE 309,SizingPeriod: ANN CLG 4% CONDNS DB =>MWB,3.1333767662E-002,0.1023836484,Pass,Pass,4.3422622410E-002,0.2290864661,Pass,Pass
 Warmup Convergence Information,THERMAL ZONE: SPACE 310,SizingPeriod: ANN CLG 4% CONDNS DB =>MWB,3.1375898784E-002,0.1020552328,Pass,Pass,4.2518762765E-002,0.2245312747,Pass,Pass
 Warmup Convergence Information,THERMAL ZONE: SPACE 311,SizingPeriod: ANN CLG 4% CONDNS DB =>MWB,3.0410596620E-002,9.6504359239E-002,Pass,Pass,3.5529772085E-002,0.1781688038,Pass,Pass
Environment,RUN PERIOD 1,WeatherFileRunPeriod,01/01,12/31,Sunday,365,UseWeatherFile,No,No,No,Yes,Yes
Environment:Daylight Saving,No,RunPeriod Object
Environment:Special Days,NEW YEAR`S DAY,Holiday,InputFile,01/01,  3
Environment:Special Days,INTERNATIONAL LABOR DAY,Holiday,InputFile,05/01,  3
Environment:Special Days,MID-AUTUM FESTIVAL,Holiday,InputFile,09/20,  3
Environment:Special Days,NATIONAL`S DAY,Holiday,InputFile,10/01,  5
Environment:Special Days,QINGMING,Holiday,InputFile,04/04,  1
Environment:Special Days,DUANWU,Holiday,InputFile,06/07,  3
Environment:Special Days,CHUXI,Holiday,InputFile,02/04,  7
Environment:WarmupDays,  9
 Warmup Convergence Information,THERMAL ZONE: SPACE 101,RunPeriod: RUN PERIOD 1,6.9058229518E-006,1.1923904762E-005,Pass,Pass,1.7254615625E-003,8.4241669711E-004,Pass,Pass
 Warmup Convergence Information,THERMAL ZONE: SPACE 102,RunPeriod: RUN PERIOD 1,3.7015368483E-006,5.5029811347E-006,Pass,Pass,1.1933881023E-003,5.8396389228E-004,Pass,Pass
 Warmup Convergence Information,THERMAL ZONE: SPACE 103,RunPeriod: RUN PERIOD 1,3.2621584923E-006,4.7372501166E-006,Pass,Pass,1.2487978335E-003,6.0913493813E-004,Pass,Pass
 Warmup Convergence Information,THERMAL ZONE: SPACE 104,RunPeriod: RUN PERIOD 1,3.7183371535E-006,5.5307221868E-006,Pass,Pass,1.1846965599E-003,5.8023293076E-004,Pass,Pass
 Warmup Convergence Information,THERMAL ZONE: SPACE 105,RunPeriod: RUN PERIOD 1,7.0238586011E-006,1.2198426233E-005,Pass,Pass,1.6013854230E-003,7.6775016464E-004,Pass,Pass
 Warmup Convergence Information,THERMAL ZONE: SPACE 106,RunPeriod: RUN PERIOD 1,3.5865979217E-006,5.3445062475E-006,Pass,Pass,9.3522506241E-004,4.6508227420E-004,Pass,Pass
 Warmup Convergence Information,THERMAL ZONE: SPACE 107,RunPeriod: RUN PERIOD 1,7.0364026278E-006,1.2248617527E-005,Pass,Pass,1.6151485115E-003,7.8548104420E-004,Pass,Pass
 Warmup Convergence Information,THERMAL ZONE: SPACE 108,RunPeriod: RUN PERIOD 1,3.8608459688E-006,5.8147114483E-006,Pass,Pass,1.0117866744E-003,4.9057795925E-004,Pass,Pass
 Warmup Convergence Information,THERMAL ZONE: SPACE 109,RunPeriod: RUN PERIOD 1,3.4324663915E-006,5.0788899678E-006,Pass,Pass,1.0432598265E-003,5.0271382734E-004,Pass,Pass
 Warmup Convergence Information,THERMAL ZONE: SPACE 110,RunPeriod: RUN PERIOD 1,3.8712480744E-006,5.8667086161E-006,Pass,Pass,1.0121920861E-003,4.9055988894E-004,Pass,Pass
 Warmup Convergence Information,THERMAL ZONE: SPACE 111,RunPeriod: RUN PERIOD 1,1.5612598515E-005,4.0879119596E-005,Pass,Pass,1.4897565762E-003,7.1687088539E-004,Pass,Pass
 Warmup Convergence Information,THERMAL ZONE: SPACE 201,RunPeriod: RUN PERIOD 1,7.0636464878E-006,1.2195384474E-005,Pass,Pass,1.4522654078E-003,7.0822946435E-004,Pass,Pass
 Warmup Convergence Information,THERMAL ZONE: SPACE 202,RunPeriod: RUN PERIOD 1,4.0210777123E-006,6.1379328314E-006,Pass,Pass,9.3378924281E-004,4.5787256205E-004,Pass,Pass
 Warmup Convergence Information,THERMAL ZONE: SPACE 203,RunPeriod: RUN PERIOD 1,3.6150262445E-006,5.3677732437E-006,Pass,Pass,9.7532202663E-004,4.7604607352E-004,Pass,Pass
 Warmup Convergence Information,THERMAL ZONE: SPACE 204,RunPeriod: RUN PERIOD 1,4.0364281705E-006,6.1761576216E-006,Pass,Pass,9.2823195306E-004,4.5540968001E-004,Pass,Pass
 Warmup Convergence Information,THERMAL ZONE: SPACE 205,RunPeriod: RUN PERIOD 1,7.1751871436E-006,1.2461835962E-005,Pass,Pass,1.3523421185E-003,6.4694385605E-004,Pass,Pass
 Warmup Convergence Information,THERMAL ZONE: SPACE 206,RunPeriod: RUN PERIOD 1,3.8817577304E-006,5.8592713665E-006,Pass,Pass,7.3298790782E-004,3.6594487605E-004,Pass,Pass
 Warmup Convergence Information,THERMAL ZONE: SPACE 207,RunPeriod: RUN PERIOD 1,7.1849446964E-006,1.2502238784E-005,Pass,Pass,1.3651743894E-003,6.6333742391E-004,Pass,Pass
 Warmup Convergence Information,THERMAL ZONE: SPACE 208,RunPeriod: RUN PERIOD 1,4.1636480392E-006,6.3536393084E-006,Pass,Pass,7.9828203055E-004,3.8914021855E-004,Pass,Pass
 Warmup Convergence Information,THERMAL ZONE: SPACE 209,RunPeriod: RUN PERIOD 1,3.7669103142E-006,5.5938579528E-006,Pass,Pass,8.2167433564E-004,3.9685230919E-004,Pass,Pass
 Warmup Convergence Information,THERMAL ZONE: SPACE 210,RunPeriod: RUN PERIOD 1,4.1875123146E-006,6.3882629654E-006,Pass,Pass,7.9517978695E-004,3.8747154225E-004,Pass,Pass
 Warmup Convergence Information,THERMAL ZONE: SPACE 211,RunPeriod: RUN PERIOD 1,7.3572203959E-006,1.3010590753E-005,Pass,Pass,1.2750964681E-003,6.0686888962E-004,Pass,Pass
 Warmup Convergence Information,THERMAL ZONE: SPACE 301,RunPeriod: RUN PERIOD 1,1.9246551406E-005,4.2626642378E-005,Pass,Pass,2.0982238621E-003,1.0157702223E-003,Pass,Pass
 Warmup Convergence Information,THERMAL ZONE: SPACE 302,RunPeriod: RUN PERIOD 1,1.7467968070E-005,6.2008497753E-005,Pass,Pass,2.0425667270E-003,1.0045347011E-003,Pass,Pass
 Warmup Convergence Information,THERMAL ZONE: SPACE 303,RunPeriod: RUN PERIOD 1,1.5800082582E-005,6.0427894550E-005,Pass,Pass,2.1087440142E-003,1.0373921877E-003,Pass,Pass
 Warmup Convergence Information,THERMAL ZONE: SPACE 304,RunPeriod: RUN PERIOD 1,1.7875539934E-005,6.3103640854E-005,Pass,Pass,2.0395035492E-003,1.0039221732E-003,Pass,Pass
 Warmup Convergence Information,THERMAL ZONE: SPACE 305,RunPeriod: RUN PERIOD 1,1.8138722592E-005,3.8606920724E-005,Pass,Pass,2.0291571777E-003,9.8007475515E-004,Pass,Pass
 Warmup Convergence Information,THERMAL ZONE: SPACE 306,RunPeriod: RUN PERIOD 1,1.7155719568E-005,6.0967925208E-005,Pass,Pass,1.9054060337E-003,9.3914986552E-004,Pass,Pass
 Warmup Convergence Information,THERMAL ZONE: SPACE 307,RunPeriod: RUN PERIOD 1,1.8205559403E-005,3.8798247891E-005,Pass,Pass,2.0325211159E-003,9.8247692195E-004,Pass,Pass
 Warmup Convergence Information,THERMAL ZONE: SPACE 308,RunPeriod: RUN PERIOD 1,1.8438585831E-005,6.2502409341E-005,Pass,Pass,1.9513689785E-003,9.5904293100E-004,Pass,Pass
 Warmup Convergence Information,THERMAL ZONE: SPACE 309,RunPeriod: RUN PERIOD 1,1.6832265495E-005,6.1623951885E-005,Pass,Pass,2.0123136025E-003,9.8995141047E-004,Pass,Pass
 Warmup Convergence Information,THERMAL ZONE: SPACE 310,RunPeriod: RUN PERIOD 1,1.9422618669E-005,6.5169788070E-005,Pass,Pass,1.9487218072E-003,9.5887470398E-004,Pass,Pass
 Warmup Convergence Information,THERMAL ZONE: SPACE 311,RunPeriod: RUN PERIOD 1,1.6700022492E-005,3.3757689282E-005,Pass,Pass,1.9650954623E-003,9.4777179083E-004,Pass,Pass
! <Program Control Information:Threads/Parallel Sims>, Threading Supported,Maximum Number of Threads, Env Set Threads (OMP_NUM_THREADS), EP Env Set Threads (EP_OMP_NUM_THREADS), IDF Set Threads, Number of Threads Used (Interior Radiant Exchange), Number Nominal Surfaces, Number Parallel Sims
Program Control:Threads/Parallel Sims, No,1, N/A, N/A, N/A, N/A, N/A, N/A
End of Data
