Program Version,EnergyPlus, Version 8.7.0-78a111df4a, YMD=2019.05.28 05:48
! <Version>, Version ID
 Version, 8.4
! <Timesteps per Hour>, #TimeSteps, Minutes per TimeStep {minutes}
 Timesteps per Hour,  4, 15
! <System Convergence Limits>, Minimum System TimeStep {minutes}, Max HVAC Iterations, Minimum Plant Iterations, Maximum Plant Iterations
 System Convergence Limits, 1, 20, 2, 8
! <Simulation Control>, Do Zone Sizing, Do System Sizing, Do Plant Sizing, Do Design Days, Do Weather Simulation, Do HVAC Sizing Simulation
 Simulation Control, No, No, No, Yes, Yes, No
! <Output Reporting Tolerances>, Tolerance for Time Heating Setpoint Not Met, Tolerance for Zone Cooling Setpoint Not Met Time
 Output Reporting Tolerances, 0.200, 0.200, 
! <Site:GroundTemperature:BuildingSurface>,Jan{C},Feb{C},Mar{C},Apr{C},May{C},Jun{C},Jul{C},Aug{C},Sep{C},Oct{C},Nov{C},Dec{C}
 Site:GroundTemperature:BuildingSurface,  17.73,  17.58,  14.99,  15.72,  19.24,  24.78,  25.36,  25.42,  25.45,  23.67,  19.98,  19.57
! <Site:GroundTemperature:FCfactorMethod>,Jan{C},Feb{C},Mar{C},Apr{C},May{C},Jun{C},Jul{C},Aug{C},Sep{C},Oct{C},Nov{C},Dec{C}
 Site:GroundTemperature:FCfactorMethod,  13.31,  10.23,   9.39,  10.12,  14.28,  18.95,  23.34,  26.51,  27.44,  25.95,  22.35,  17.82
! <Site:GroundTemperature:Shallow>,Jan{C},Feb{C},Mar{C},Apr{C},May{C},Jun{C},Jul{C},Aug{C},Sep{C},Oct{C},Nov{C},Dec{C}
 Site:GroundTemperature:Shallow,  13.00,  13.00,  13.00,  13.00,  13.00,  13.00,  13.00,  13.00,  13.00,  13.00,  13.00,  13.00
! <Site:GroundTemperature:Deep>,Jan{C},Feb{C},Mar{C},Apr{C},May{C},Jun{C},Jul{C},Aug{C},Sep{C},Oct{C},Nov{C},Dec{C}
 Site:GroundTemperature:Deep,  16.00,  16.00,  16.00,  16.00,  16.00,  16.00,  16.00,  16.00,  16.00,  16.00,  16.00,  16.00
! <Site:GroundReflectance>,Jan{dimensionless},Feb{dimensionless},Mar{dimensionless},Apr{dimensionless},May{dimensionless},Jun{dimensionless},Jul{dimensionless},Aug{dimensionless},Sep{dimensionless},Oct{dimensionless},Nov{dimensionless},Dec{dimensionless}
 Site:GroundReflectance,  0.20,  0.20,  0.20,  0.20,  0.20,  0.20,  0.20,  0.20,  0.20,  0.20,  0.20,  0.20
! <Site:GroundReflectance:SnowModifier>, Normal, Daylighting {dimensionless}
 Site:GroundReflectance:SnowModifier,   1.000,   1.000
! <Site:GroundReflectance:Snow>,Jan{dimensionless},Feb{dimensionless},Mar{dimensionless},Apr{dimensionless},May{dimensionless},Jun{dimensionless},Jul{dimensionless},Aug{dimensionless},Sep{dimensionless},Oct{dimensionless},Nov{dimensionless},Dec{dimensionless}
 Site:GroundReflectance:Snow,  0.20,  0.20,  0.20,  0.20,  0.20,  0.20,  0.20,  0.20,  0.20,  0.20,  0.20,  0.20
! <Site:GroundReflectance:Snow:Daylighting>,Jan{dimensionless},Feb{dimensionless},Mar{dimensionless},Apr{dimensionless},May{dimensionless},Jun{dimensionless},Jul{dimensionless},Aug{dimensionless},Sep{dimensionless},Oct{dimensionless},Nov{dimensionless},Dec{dimensionless}
 Site:GroundReflectance:Snow:Daylighting,  0.20,  0.20,  0.20,  0.20,  0.20,  0.20,  0.20,  0.20,  0.20,  0.20,  0.20,  0.20
! <Environment:Weather Station>,Wind Sensor Height Above Ground {m},Wind Speed Profile Exponent {},Wind Speed Profile Boundary Layer Thickness {m},Air Temperature Sensor Height Above Ground {m},Wind Speed Modifier Coefficient-Internal,Temperature Modifier Coefficient-Internal
Environment:Weather Station,10.000,0.140,270.000,1.500,1.586,9.750E-003
! <Site:Location>, Location Name, Latitude {N+/S- Deg}, Longitude {E+/W- Deg},  Time Zone Number {GMT+/-}, Elevation {m},  Standard Pressure at Elevation {Pa}, Standard RhoAir at Elevation
Site:Location,Chongqing Shapingba Chongqing CHN CSWD WMO#=575160,29.58,106.47,8.00,259.10,98251,1.1678
! <Building Information>, Building Name,North Axis {deg},Terrain,  Loads Convergence Tolerance Value,Temperature Convergence Tolerance Value,  Solar Distribution,Maximum Number of Warmup Days,Minimum Number of Warmup Days
 Building Information,3cengzhuzhai,318.639,City,4.00000E-002,0.40000,FullInteriorAndExterior,25,6
! <Inside Convection Algorithm>, Algorithm {Simple | TARP | CeilingDiffuser | AdaptiveConvectionAlgorithm}
Inside Convection Algorithm,AdaptiveConvectionAlgorithm
! <Outside Convection Algorithm>, Algorithm {SimpleCombined | TARP | MoWitt | DOE-2 | AdaptiveConvectionAlgorithm}
Outside Convection Algorithm,AdaptiveConvectionAlgorithm
! <Sky Radiance Distribution>, Value {Anisotropic}
Sky Radiance Distribution,Anisotropic
! <Zone Air Solution Algorithm>, Value {ThirdOrderBackwardDifference | AnalyticalSolution | EulerMethod}
 Zone Air Solution Algorithm, ThirdOrderBackwardDifference
! <Zone Air Carbon Dioxide Balance Simulation>, Simulation {Yes/No}, Carbon Dioxide Concentration
 Zone Air Carbon Dioxide Balance Simulation, No,N/A
! <Zone Air Generic Contaminant Balance Simulation>, Simulation {Yes/No}, Generic Contaminant Concentration
 Zone Air Generic Contaminant Balance Simulation, No,N/A
! <Zone Air Mass Flow Balance Simulation>, Enforce Mass Balance, Adjust Zone Mixing, Adjust Zone Infiltration {AddInfiltration | AdjustInfiltration | None}, Infiltration Zones {MixingSourceZonesOnly | AllZones}
 Zone Air Mass Flow Balance Simulation, No,N/A,N/A,N/A
! <Environment:Site Atmospheric Variation>,Wind Speed Profile Exponent {},Wind Speed Profile Boundary Layer Thickness {m},Air Temperature Gradient Coefficient {K/m}
Environment:Site Atmospheric Variation,0.330,460.000,6.500000E-003
! <Surface Geometry>,Starting Corner,Vertex Input Direction,Coordinate System,Daylight Reference Point Coordinate System,Rectangular (Simple) Surface Coordinate System
 Surface Geometry,UpperLeftCorner,Counterclockwise,RelativeCoordinateSystem,RelativeCoordinateSystem,RelativeToZoneOrigin
! <Surface Heat Transfer Algorithm>, Value {CTF - ConductionTransferFunction | EMPD - MoisturePenetrationDepthConductionTransferFunction | CondFD - ConductionFiniteDifference | HAMT - CombinedHeatAndMoistureFiniteElement} - Description,Inside Surface Max Temperature Limit{C}, Surface Convection Coefficient Lower Limit {W/m2-K}, Surface Convection Coefficient Upper Limit {W/m2-K}
Surface Heat Transfer Algorithm, CTF - ConductionTransferFunction,200,0.10,1000.0
! <Shading Summary>, Number of Fixed Detached Shades, Number of Building Detached Shades, Number of Attached Shades
 Shading Summary,0,0,0
! <Zone Summary>, Number of Zones, Number of Zone Surfaces, Number of SubSurfaces
 Zone Summary,63,498,60
! <Zone Information>,Zone Name,North Axis {deg},Origin X-Coordinate {m},Origin Y-Coordinate {m},Origin Z-Coordinate {m},Centroid X-Coordinate {m},Centroid Y-Coordinate {m},Centroid Z-Coordinate {m},Type,Zone Multiplier,Zone List Multiplier,Minimum X {m},Maximum X {m},Minimum Y {m},Maximum Y {m},Minimum Z {m},Maximum Z {m},Ceiling Height {m},Volume {m3},Zone Inside Convection Algorithm {Simple-Detailed-CeilingDiffuser-TrombeWall},Zone Outside Convection Algorithm {Simple-Detailed-Tarp-MoWitt-DOE-2-BLAST}, Floor Area {m2},Exterior Gross Wall Area {m2},Exterior Net Wall Area {m2},Exterior Window Area {m2}, Number of Surfaces, Number of SubSurfaces, Number of Shading SubSurfaces,  Part of Total Building Area
 Zone Information, KITCHEN1.1,0.0,8.60,3.00,0.00,3.89,10.42,1.50,1,1,1,1.50,6.27,7.93,12.90,0.00,3.00,3.00,32.40,AdaptiveConvectionAlgorithm,AdaptiveConvectionAlgorithm,10.80,0.00,0.00,0.00,6,0,0,Yes
 Zone Information, BEDROOM1.4,0.0,16.00,0.00,0.00,13.27,13.68,1.50,1,1,1,10.03,16.51,10.57,16.79,0.00,3.00,3.00,54.00,AdaptiveConvectionAlgorithm,AdaptiveConvectionAlgorithm,18.00,27.00,23.88,3.12,6,2,0,Yes
 Zone Information, KITCHEN1.2,0.0,11.00,3.00,0.00,5.69,12.00,1.50,1,1,1,3.30,8.08,9.52,14.48,0.00,3.00,3.00,32.40,AdaptiveConvectionAlgorithm,AdaptiveConvectionAlgorithm,10.80,0.00,0.00,0.00,6,0,0,Yes
 Zone Information, LIVINGROOM1.2,0.0,13.50,3.00,0.00,9.82,15.64,1.50,1,1,1,5.10,14.53,11.11,20.17,0.00,3.00,3.00,116.10,AdaptiveConvectionAlgorithm,AdaptiveConvectionAlgorithm,38.70,13.50,10.24,3.26,8,1,0,Yes
 Zone Information, BEDROOM1.7,0.0,0.00,11.00,0.00,-5.61,12.05,1.50,1,1,1,-9.58,-1.64,8.26,15.84,0.00,3.00,3.00,78.75,AdaptiveConvectionAlgorithm,AdaptiveConvectionAlgorithm,26.25,10.50,8.05,2.45,6,1,0,Yes
 Zone Information, LIVINGROOM1.3,0.0,0.00,14.50,0.00,-7.84,15.41,1.50,1,1,1,-12.56,-3.13,10.88,19.94,0.00,3.00,3.00,116.10,AdaptiveConvectionAlgorithm,AdaptiveConvectionAlgorithm,38.70,13.50,10.35,3.15,8,1,0,Yes
 Zone Information, BEDROOM1.9,0.0,0.00,19.00,0.00,-11.29,17.37,1.50,1,1,1,-14.54,-8.05,14.26,20.48,0.00,3.00,3.00,54.00,AdaptiveConvectionAlgorithm,AdaptiveConvectionAlgorithm,18.00,27.00,22.96,4.04,6,2,0,Yes
 Zone Information, BEDROOM1.10,0.0,6.00,19.00,0.00,-7.17,21.00,1.50,1,1,1,-10.03,-4.30,18.23,23.78,0.00,3.00,3.00,45.00,AdaptiveConvectionAlgorithm,AdaptiveConvectionAlgorithm,15.00,15.00,13.06,1.94,7,1,0,Yes
 Zone Information, BEDROOM1.11,0.0,11.00,19.00,0.00,-3.41,24.31,1.50,1,1,1,-6.28,-0.55,21.53,27.09,0.00,3.00,3.00,45.00,AdaptiveConvectionAlgorithm,AdaptiveConvectionAlgorithm,15.00,15.00,13.06,1.94,7,1,0,Yes
 Zone Information, BEDROOM1.12,0.0,16.00,19.00,0.00,0.71,27.94,1.50,1,1,1,-2.53,3.96,24.83,31.05,0.00,3.00,3.00,54.00,AdaptiveConvectionAlgorithm,AdaptiveConvectionAlgorithm,18.00,27.00,22.89,4.11,6,2,0,Yes
 Zone Information, STAIRCASE1.1,0.0,7.50,7.50,0.00,0.99,15.52,1.50,1,1,1,-3.95,5.93,10.59,20.46,0.00,3.00,3.00,147.00,AdaptiveConvectionAlgorithm,AdaptiveConvectionAlgorithm,49.00,0.00,0.00,0.00,14,0,0,Yes
 Zone Information, KITCHEN1.3,0.0,8.60,14.50,0.00,-3.71,19.05,1.50,1,1,1,-6.10,-1.33,16.57,21.53,0.00,3.00,3.00,32.40,AdaptiveConvectionAlgorithm,AdaptiveConvectionAlgorithm,10.80,0.00,0.00,0.00,6,0,0,Yes
 Zone Information, KITCHEN1.4,0.0,11.00,14.50,0.00,-1.91,20.63,1.50,1,1,1,-4.30,0.48,18.15,23.12,0.00,3.00,3.00,32.40,AdaptiveConvectionAlgorithm,AdaptiveConvectionAlgorithm,10.80,0.00,0.00,0.00,6,0,0,Yes
 Zone Information, LIVINGROOM1.4,0.0,13.40,14.50,0.00,2.22,24.27,1.50,1,1,1,-2.50,6.93,19.74,28.80,0.00,3.00,3.00,116.10,AdaptiveConvectionAlgorithm,AdaptiveConvectionAlgorithm,38.70,13.50,10.24,3.26,8,1,0,Yes
 Zone Information, BEDROOM1.6,0.0,14.50,7.50,0.00,7.59,19.00,1.50,1,1,1,3.61,11.56,15.21,22.79,0.00,3.00,3.00,78.75,AdaptiveConvectionAlgorithm,AdaptiveConvectionAlgorithm,26.25,10.50,7.97,2.53,6,1,0,Yes
 Zone Information, BEDROOM1.8,0.0,14.50,11.00,0.00,5.27,21.63,1.50,1,1,1,1.30,9.24,17.84,25.42,0.00,3.00,3.00,78.75,AdaptiveConvectionAlgorithm,AdaptiveConvectionAlgorithm,26.25,10.50,7.97,2.53,6,1,0,Yes
 Zone Information, BEDROOM1.3,0.0,11.00,0.00,0.00,9.14,10.05,1.50,1,1,1,6.27,12.01,7.27,12.82,0.00,3.00,3.00,45.00,AdaptiveConvectionAlgorithm,AdaptiveConvectionAlgorithm,15.00,15.00,14.05,0.95,7,1,0,Yes
 Zone Information, BEDROOM1.2,0.0,6.00,0.00,0.00,5.39,6.74,1.50,1,1,1,2.52,8.26,3.96,9.52,0.00,3.00,3.00,45.00,AdaptiveConvectionAlgorithm,AdaptiveConvectionAlgorithm,15.00,15.00,14.05,0.95,7,1,0,Yes
 Zone Information, BEDROOM1.1,0.0,0.00,0.00,0.00,1.26,3.11,1.50,1,1,1,-1.98,4.50,0.00,6.22,0.00,3.00,3.00,54.00,AdaptiveConvectionAlgorithm,AdaptiveConvectionAlgorithm,18.00,27.00,23.95,3.05,6,2,0,Yes
 Zone Information, LIVINGROOM1.1,0.0,0.00,3.00,0.00,-0.24,6.78,1.50,1,1,1,-4.96,4.47,2.25,11.31,0.00,3.00,3.00,116.10,AdaptiveConvectionAlgorithm,AdaptiveConvectionAlgorithm,38.70,13.50,10.35,3.15,8,1,0,Yes
 Zone Information, BEDROOM1.5,0.0,0.00,7.50,0.00,-3.30,9.42,1.50,1,1,1,-7.27,0.67,5.63,13.21,0.00,3.00,3.00,78.75,AdaptiveConvectionAlgorithm,AdaptiveConvectionAlgorithm,26.25,10.50,8.05,2.45,6,1,0,Yes
 Zone Information, LIVINGROOM2.4,0.0,13.40,14.50,0.00,2.22,24.27,4.50,1,1,1,-2.50,6.93,19.74,28.80,3.00,6.00,3.00,116.10,AdaptiveConvectionAlgorithm,AdaptiveConvectionAlgorithm,38.70,13.50,10.24,3.26,8,1,0,Yes
 Zone Information, BEDROOM2.5,0.0,0.00,7.50,0.00,-3.30,9.42,4.50,1,1,1,-7.27,0.67,5.63,13.21,3.00,6.00,3.00,78.75,AdaptiveConvectionAlgorithm,AdaptiveConvectionAlgorithm,26.25,10.50,8.05,2.45,6,1,0,Yes
 Zone Information, LIVINGROOM2.1,0.0,0.00,3.00,0.00,-0.24,6.78,4.50,1,1,1,-4.96,4.47,2.25,11.31,3.00,6.00,3.00,116.10,AdaptiveConvectionAlgorithm,AdaptiveConvectionAlgorithm,38.70,13.50,10.35,3.15,8,1,0,Yes
 Zone Information, BEDROOM2.11,0.0,11.00,19.00,0.00,-3.41,24.31,4.50,1,1,1,-6.28,-0.55,21.53,27.18,3.00,6.00,3.00,45.00,AdaptiveConvectionAlgorithm,AdaptiveConvectionAlgorithm,15.00,15.00,13.06,1.94,7,1,0,Yes
 Zone Information, BEDROOM2.10,0.0,6.00,19.00,0.00,-7.17,21.00,4.50,1,1,1,-10.03,-4.30,18.23,23.88,3.00,6.00,3.00,45.00,AdaptiveConvectionAlgorithm,AdaptiveConvectionAlgorithm,15.00,15.00,13.06,1.94,7,1,0,Yes
 Zone Information, BEDROOM2.9,0.0,0.00,19.00,0.00,-11.29,17.37,4.50,1,1,1,-14.54,-8.05,14.26,20.48,3.00,6.00,3.00,54.00,AdaptiveConvectionAlgorithm,AdaptiveConvectionAlgorithm,18.00,27.00,22.96,4.04,6,2,0,Yes
 Zone Information, LIVINGROOM2.3,0.0,0.00,14.50,0.00,-7.84,15.41,4.50,1,1,1,-12.56,-3.13,10.88,19.94,3.00,6.00,3.00,116.10,AdaptiveConvectionAlgorithm,AdaptiveConvectionAlgorithm,38.70,13.50,10.35,3.15,8,1,0,Yes
 Zone Information, BEDROOM2.7,0.0,0.00,11.00,0.00,-5.61,12.05,4.50,1,1,1,-9.58,-1.64,8.26,15.84,3.00,6.00,3.00,78.75,AdaptiveConvectionAlgorithm,AdaptiveConvectionAlgorithm,26.25,10.50,8.05,2.45,6,1,0,Yes
 Zone Information, LIVINGROOM2.2,0.0,13.50,3.00,0.00,9.82,15.64,4.50,1,1,1,5.10,14.53,11.11,20.17,3.00,6.00,3.00,116.10,AdaptiveConvectionAlgorithm,AdaptiveConvectionAlgorithm,38.70,13.50,10.24,3.26,8,1,0,Yes
 Zone Information, BEDROOM2.2,0.0,6.00,0.00,0.00,5.39,6.74,4.50,1,1,1,2.52,8.26,3.96,9.52,3.00,6.00,3.00,45.00,AdaptiveConvectionAlgorithm,AdaptiveConvectionAlgorithm,15.00,15.00,14.05,0.95,7,1,0,Yes
 Zone Information, BEDROOM2.8,0.0,14.50,11.00,0.00,5.27,21.63,4.50,1,1,1,1.30,9.24,17.84,25.42,3.00,6.00,3.00,78.75,AdaptiveConvectionAlgorithm,AdaptiveConvectionAlgorithm,26.25,10.50,7.97,2.53,6,1,0,Yes
 Zone Information, BEDROOM2.3,0.0,11.00,0.00,0.00,9.14,10.05,4.50,1,1,1,6.27,12.01,7.27,12.82,3.00,6.00,3.00,45.00,AdaptiveConvectionAlgorithm,AdaptiveConvectionAlgorithm,15.00,15.00,14.05,0.95,7,1,0,Yes
 Zone Information, BEDROOM2.1,0.0,0.00,0.00,0.00,1.26,3.11,4.50,1,1,1,-1.98,4.50,0.00,6.22,3.00,6.00,3.00,54.00,AdaptiveConvectionAlgorithm,AdaptiveConvectionAlgorithm,18.00,27.00,23.95,3.05,6,2,0,Yes
 Zone Information, BEDROOM2.4,0.0,16.00,0.00,0.00,13.27,13.68,4.50,1,1,1,10.03,16.51,10.57,16.79,3.00,6.00,3.00,54.00,AdaptiveConvectionAlgorithm,AdaptiveConvectionAlgorithm,18.00,27.00,23.88,3.12,6,2,0,Yes
 Zone Information, BEDROOM2.6,0.0,14.50,7.50,0.00,7.59,19.00,4.50,1,1,1,3.61,11.56,15.21,22.79,3.00,6.00,3.00,78.75,AdaptiveConvectionAlgorithm,AdaptiveConvectionAlgorithm,26.25,10.50,7.97,2.53,6,1,0,Yes
 Zone Information, KITCHEN2.1,0.0,8.60,3.00,0.00,3.89,10.42,4.50,1,1,1,1.50,6.27,7.93,12.90,3.00,6.00,3.00,32.40,AdaptiveConvectionAlgorithm,AdaptiveConvectionAlgorithm,10.80,0.00,0.00,0.00,6,0,0,Yes
 Zone Information, KITCHEN2.4,0.0,11.00,14.50,0.00,-1.91,20.63,4.50,1,1,1,-4.30,0.48,18.15,23.12,3.00,6.00,3.00,32.40,AdaptiveConvectionAlgorithm,AdaptiveConvectionAlgorithm,10.80,0.00,0.00,0.00,6,0,0,Yes
 Zone Information, KITCHEN2.3,0.0,8.60,14.50,0.00,-3.71,19.05,4.50,1,1,1,-6.10,-1.33,16.57,21.53,3.00,6.00,3.00,32.40,AdaptiveConvectionAlgorithm,AdaptiveConvectionAlgorithm,10.80,0.00,0.00,0.00,6,0,0,Yes
 Zone Information, STAIRCASE2.1,0.0,7.50,7.50,0.00,0.99,15.52,4.50,1,1,1,-3.95,5.93,10.59,20.46,3.00,6.00,3.00,147.00,AdaptiveConvectionAlgorithm,AdaptiveConvectionAlgorithm,49.00,0.00,0.00,0.00,14,0,0,Yes
 Zone Information, BEDROOM2.12,0.0,16.00,19.00,0.00,0.71,27.94,4.50,1,1,1,-2.53,3.96,24.83,31.05,3.00,6.00,3.00,54.00,AdaptiveConvectionAlgorithm,AdaptiveConvectionAlgorithm,18.00,27.00,22.89,4.11,6,2,0,Yes
 Zone Information, KITCHEN2.2,0.0,11.00,3.00,0.00,5.69,12.00,4.50,1,1,1,3.30,8.08,9.52,14.48,3.00,6.00,3.00,32.40,AdaptiveConvectionAlgorithm,AdaptiveConvectionAlgorithm,10.80,0.00,0.00,0.00,6,0,0,Yes
 Zone Information, LIVINGROOM3.4,0.0,13.40,14.50,0.00,2.22,24.27,7.50,1,1,1,-2.50,6.93,19.74,28.80,6.00,9.00,3.00,116.10,AdaptiveConvectionAlgorithm,AdaptiveConvectionAlgorithm,38.70,13.50,10.24,3.26,8,1,0,Yes
 Zone Information, BEDROOM3.5,0.0,0.00,7.50,0.00,-3.30,9.42,7.50,1,1,1,-7.27,0.67,5.63,13.21,6.00,9.00,3.00,78.75,AdaptiveConvectionAlgorithm,AdaptiveConvectionAlgorithm,26.25,10.50,8.05,2.45,6,1,0,Yes
 Zone Information, LIVINGROOM3.1,0.0,0.00,3.00,0.00,-0.24,6.78,7.50,1,1,1,-4.96,4.47,2.25,11.31,6.00,9.00,3.00,116.10,AdaptiveConvectionAlgorithm,AdaptiveConvectionAlgorithm,38.70,13.50,10.35,3.15,8,1,0,Yes
 Zone Information, BEDROOM3.11,0.0,11.00,19.00,0.00,-3.41,24.31,7.50,1,1,1,-6.28,-0.17,21.53,29.16,6.00,9.00,3.00,45.00,AdaptiveConvectionAlgorithm,AdaptiveConvectionAlgorithm,15.00,15.00,13.06,1.94,7,1,0,Yes
 Zone Information, BEDROOM3.10,0.0,6.00,19.00,0.00,-7.17,21.00,7.50,1,1,1,-10.03,-3.92,18.23,25.86,6.00,9.00,3.00,45.00,AdaptiveConvectionAlgorithm,AdaptiveConvectionAlgorithm,15.00,15.00,13.06,1.94,7,1,0,Yes
 Zone Information, BEDROOM3.9,0.0,0.00,19.00,0.00,-11.29,17.37,7.50,1,1,1,-14.54,-8.05,14.26,21.89,6.00,9.00,3.00,54.00,AdaptiveConvectionAlgorithm,AdaptiveConvectionAlgorithm,18.00,27.00,22.96,4.04,6,2,0,Yes
 Zone Information, LIVINGROOM3.3,0.0,0.00,14.50,0.00,-7.84,15.41,7.50,1,1,1,-12.56,-3.13,10.88,19.94,6.00,9.00,3.00,116.10,AdaptiveConvectionAlgorithm,AdaptiveConvectionAlgorithm,38.70,13.50,10.35,3.15,8,1,0,Yes
 Zone Information, KITCHEN3.4,0.0,11.00,14.50,0.00,-1.91,20.63,7.50,1,1,1,-4.30,0.48,18.15,23.12,6.00,9.00,3.00,32.40,AdaptiveConvectionAlgorithm,AdaptiveConvectionAlgorithm,10.80,0.00,0.00,0.00,6,0,0,Yes
 Zone Information, KITCHEN3.1,0.0,8.60,3.00,0.00,3.89,10.42,7.50,1,1,1,1.50,6.27,7.93,12.90,6.00,9.00,3.00,32.40,AdaptiveConvectionAlgorithm,AdaptiveConvectionAlgorithm,10.80,0.00,0.00,0.00,6,0,0,Yes
 Zone Information, BEDROOM3.4,0.0,16.00,0.00,0.00,13.27,13.68,7.50,1,1,1,10.03,17.88,10.57,16.79,6.00,9.00,3.00,54.00,AdaptiveConvectionAlgorithm,AdaptiveConvectionAlgorithm,18.00,27.00,23.88,3.12,6,2,0,Yes
 Zone Information, BEDROOM3.6,0.0,14.50,7.50,0.00,7.59,19.00,7.50,1,1,1,3.61,11.56,15.21,22.79,6.00,9.00,3.00,78.75,AdaptiveConvectionAlgorithm,AdaptiveConvectionAlgorithm,26.25,10.50,7.97,2.53,6,1,0,Yes
 Zone Information, KITCHEN3.3,0.0,8.60,14.50,0.00,-3.71,19.05,7.50,1,1,1,-6.10,-1.33,16.57,21.53,6.00,9.00,3.00,32.40,AdaptiveConvectionAlgorithm,AdaptiveConvectionAlgorithm,10.80,0.00,0.00,0.00,6,0,0,Yes
 Zone Information, KITCHEN3.2,0.0,11.00,3.00,0.00,5.69,12.00,7.50,1,1,1,3.30,8.08,9.52,14.48,6.00,9.00,3.00,32.40,AdaptiveConvectionAlgorithm,AdaptiveConvectionAlgorithm,10.80,0.00,0.00,0.00,6,0,0,Yes
 Zone Information, BEDROOM3.12,0.0,16.00,19.00,0.00,0.71,27.94,7.50,1,1,1,-2.53,3.96,24.83,32.47,6.00,9.00,3.00,54.00,AdaptiveConvectionAlgorithm,AdaptiveConvectionAlgorithm,18.00,27.00,22.89,4.11,6,2,0,Yes
 Zone Information, STAIRCASE3.1,0.0,7.50,7.50,0.00,0.99,15.52,7.50,1,1,1,-3.95,5.93,10.59,20.46,6.00,9.00,3.00,147.00,AdaptiveConvectionAlgorithm,AdaptiveConvectionAlgorithm,49.00,0.00,0.00,0.00,14,0,0,Yes
 Zone Information, BEDROOM3.3,0.0,11.00,0.00,0.00,9.14,10.05,7.50,1,1,1,6.27,14.12,7.27,12.82,6.00,9.00,3.00,45.00,AdaptiveConvectionAlgorithm,AdaptiveConvectionAlgorithm,15.00,15.00,14.05,0.95,7,1,0,Yes
 Zone Information, BEDROOM3.1,0.0,0.00,0.00,0.00,1.26,3.11,7.50,1,1,1,-1.98,5.87,0.00,6.22,6.00,9.00,3.00,54.00,AdaptiveConvectionAlgorithm,AdaptiveConvectionAlgorithm,18.00,27.00,23.95,3.05,6,2,0,Yes
 Zone Information, BEDROOM3.8,0.0,14.50,11.00,0.00,5.27,21.63,7.50,1,1,1,1.30,9.24,17.84,25.42,6.00,9.00,3.00,78.75,AdaptiveConvectionAlgorithm,AdaptiveConvectionAlgorithm,26.25,10.50,7.97,2.53,6,1,0,Yes
 Zone Information, BEDROOM3.2,0.0,6.00,0.00,0.00,5.39,6.74,7.50,1,1,1,2.52,10.37,3.96,9.52,6.00,9.00,3.00,45.00,AdaptiveConvectionAlgorithm,AdaptiveConvectionAlgorithm,15.00,15.00,14.05,0.95,7,1,0,Yes
 Zone Information, LIVINGROOM3.2,0.0,13.50,3.00,0.00,9.82,15.64,7.50,1,1,1,5.10,14.53,11.11,20.17,6.00,9.00,3.00,116.10,AdaptiveConvectionAlgorithm,AdaptiveConvectionAlgorithm,38.70,13.50,10.24,3.26,8,1,0,Yes
 Zone Information, BEDROOM3.7,0.0,0.00,11.00,0.00,-5.61,12.05,7.50,1,1,1,-9.58,-1.64,8.26,15.84,6.00,9.00,3.00,78.75,AdaptiveConvectionAlgorithm,AdaptiveConvectionAlgorithm,26.25,10.50,8.05,2.45,6,1,0,Yes
! <Zone Internal Gains Nominal>,Zone Name, Floor Area {m2},# Occupants,Area per Occupant {m2/person},Occupant per Area {person/m2},Interior Lighting {W/m2},Electric Load {W/m2},Gas Load {W/m2},Other Load {W/m2},Hot Water Eq {W/m2},Steam Equipment {W/m2},Sum Loads per Area {W/m2},Outdoor Controlled Baseboard Heat
 Zone Internal Gains Nominal, KITCHEN1.1,10.80,0.3,35.630,2.807E-002,6.000,4.300,0.000,0.000,0.000,0.000,10.300,No
 Zone Internal Gains Nominal, BEDROOM1.4,18.00,0.5,35.630,2.807E-002,3.000,4.300,0.000,0.000,0.000,0.000,7.300,No
 Zone Internal Gains Nominal, KITCHEN1.2,10.80,0.3,35.630,2.807E-002,6.000,4.300,0.000,0.000,0.000,0.000,10.300,No
 Zone Internal Gains Nominal, LIVINGROOM1.2,38.70,1.1,35.630,2.807E-002,5.000,4.300,0.000,0.000,0.000,0.000,9.300,No
 Zone Internal Gains Nominal, BEDROOM1.7,26.25,0.7,35.630,2.807E-002,3.000,4.300,0.000,0.000,0.000,0.000,7.300,No
 Zone Internal Gains Nominal, LIVINGROOM1.3,38.70,1.1,35.630,2.807E-002,5.000,4.300,0.000,0.000,0.000,0.000,9.300,No
 Zone Internal Gains Nominal, BEDROOM1.9,18.00,0.5,35.630,2.807E-002,3.000,4.300,0.000,0.000,0.000,0.000,7.300,No
 Zone Internal Gains Nominal, BEDROOM1.10,15.00,0.4,35.630,2.807E-002,3.000,4.300,0.000,0.000,0.000,0.000,7.300,No
 Zone Internal Gains Nominal, BEDROOM1.11,15.00,0.4,35.630,2.807E-002,3.000,4.300,0.000,0.000,0.000,0.000,7.300,No
 Zone Internal Gains Nominal, BEDROOM1.12,18.00,0.5,35.630,2.807E-002,3.000,4.300,0.000,0.000,0.000,0.000,7.300,No
 Zone Internal Gains Nominal, STAIRCASE1.1,49.00,0.0,N/A,0.000,0.000,0.000,0.000,0.000,0.000,0.000,0.000,No
 Zone Internal Gains Nominal, KITCHEN1.3,10.80,0.3,35.630,2.807E-002,6.000,4.300,0.000,0.000,0.000,0.000,10.300,No
 Zone Internal Gains Nominal, KITCHEN1.4,10.80,0.3,35.630,2.807E-002,6.000,4.300,0.000,0.000,0.000,0.000,10.300,No
 Zone Internal Gains Nominal, LIVINGROOM1.4,38.70,1.1,35.630,2.807E-002,5.000,4.300,0.000,0.000,0.000,0.000,9.300,No
 Zone Internal Gains Nominal, BEDROOM1.6,26.25,0.7,35.630,2.807E-002,3.000,4.300,0.000,0.000,0.000,0.000,7.300,No
 Zone Internal Gains Nominal, BEDROOM1.8,26.25,0.7,35.630,2.807E-002,3.000,4.300,0.000,0.000,0.000,0.000,7.300,No
 Zone Internal Gains Nominal, BEDROOM1.3,15.00,0.4,35.630,2.807E-002,3.000,4.300,0.000,0.000,0.000,0.000,7.300,No
 Zone Internal Gains Nominal, BEDROOM1.2,15.00,0.4,35.630,2.807E-002,3.000,4.300,0.000,0.000,0.000,0.000,7.300,No
 Zone Internal Gains Nominal, BEDROOM1.1,18.00,0.5,35.630,2.807E-002,3.000,4.300,0.000,0.000,0.000,0.000,7.300,No
 Zone Internal Gains Nominal, LIVINGROOM1.1,38.70,1.1,35.630,2.807E-002,5.000,4.300,0.000,0.000,0.000,0.000,9.300,No
 Zone Internal Gains Nominal, BEDROOM1.5,26.25,0.7,35.630,2.807E-002,3.000,4.300,0.000,0.000,0.000,0.000,7.300,No
 Zone Internal Gains Nominal, LIVINGROOM2.4,38.70,1.1,35.630,2.807E-002,5.000,4.300,0.000,0.000,0.000,0.000,9.300,No
 Zone Internal Gains Nominal, BEDROOM2.5,26.25,0.7,35.630,2.807E-002,3.000,4.300,0.000,0.000,0.000,0.000,7.300,No
 Zone Internal Gains Nominal, LIVINGROOM2.1,38.70,1.1,35.630,2.807E-002,5.000,4.300,0.000,0.000,0.000,0.000,9.300,No
 Zone Internal Gains Nominal, BEDROOM2.11,15.00,0.4,35.630,2.807E-002,3.000,4.300,0.000,0.000,0.000,0.000,7.300,No
 Zone Internal Gains Nominal, BEDROOM2.10,15.00,0.4,35.630,2.807E-002,3.000,4.300,0.000,0.000,0.000,0.000,7.300,No
 Zone Internal Gains Nominal, BEDROOM2.9,18.00,0.5,35.630,2.807E-002,3.000,4.300,0.000,0.000,0.000,0.000,7.300,No
 Zone Internal Gains Nominal, LIVINGROOM2.3,38.70,1.1,35.630,2.807E-002,5.000,4.300,0.000,0.000,0.000,0.000,9.300,No
 Zone Internal Gains Nominal, BEDROOM2.7,26.25,0.7,35.630,2.807E-002,3.000,4.300,0.000,0.000,0.000,0.000,7.300,No
 Zone Internal Gains Nominal, LIVINGROOM2.2,38.70,1.1,35.630,2.807E-002,5.000,4.300,0.000,0.000,0.000,0.000,9.300,No
 Zone Internal Gains Nominal, BEDROOM2.2,15.00,0.4,35.630,2.807E-002,3.000,4.300,0.000,0.000,0.000,0.000,7.300,No
 Zone Internal Gains Nominal, BEDROOM2.8,26.25,0.7,35.630,2.807E-002,3.000,4.300,0.000,0.000,0.000,0.000,7.300,No
 Zone Internal Gains Nominal, BEDROOM2.3,15.00,0.4,35.630,2.807E-002,3.000,4.300,0.000,0.000,0.000,0.000,7.300,No
 Zone Internal Gains Nominal, BEDROOM2.1,18.00,0.5,35.630,2.807E-002,3.000,4.300,0.000,0.000,0.000,0.000,7.300,No
 Zone Internal Gains Nominal, BEDROOM2.4,18.00,0.5,35.630,2.807E-002,3.000,4.300,0.000,0.000,0.000,0.000,7.300,No
 Zone Internal Gains Nominal, BEDROOM2.6,26.25,0.7,35.630,2.807E-002,3.000,4.300,0.000,0.000,0.000,0.000,7.300,No
 Zone Internal Gains Nominal, KITCHEN2.1,10.80,0.3,35.630,2.807E-002,6.000,4.300,0.000,0.000,0.000,0.000,10.300,No
 Zone Internal Gains Nominal, KITCHEN2.4,10.80,0.3,35.630,2.807E-002,6.000,4.300,0.000,0.000,0.000,0.000,10.300,No
 Zone Internal Gains Nominal, KITCHEN2.3,10.80,0.3,35.630,2.807E-002,6.000,4.300,0.000,0.000,0.000,0.000,10.300,No
 Zone Internal Gains Nominal, STAIRCASE2.1,49.00,0.0,N/A,0.000,0.000,0.000,0.000,0.000,0.000,0.000,0.000,No
 Zone Internal Gains Nominal, BEDROOM2.12,18.00,0.5,35.630,2.807E-002,3.000,4.300,0.000,0.000,0.000,0.000,7.300,No
 Zone Internal Gains Nominal, KITCHEN2.2,10.80,0.3,35.630,2.807E-002,6.000,4.300,0.000,0.000,0.000,0.000,10.300,No
 Zone Internal Gains Nominal, LIVINGROOM3.4,38.70,1.1,35.630,2.807E-002,5.000,4.300,0.000,0.000,0.000,0.000,9.300,No
 Zone Internal Gains Nominal, BEDROOM3.5,26.25,0.7,35.630,2.807E-002,3.000,4.300,0.000,0.000,0.000,0.000,7.300,No
 Zone Internal Gains Nominal, LIVINGROOM3.1,38.70,1.1,35.630,2.807E-002,5.000,4.300,0.000,0.000,0.000,0.000,9.300,No
 Zone Internal Gains Nominal, BEDROOM3.11,15.00,0.4,35.630,2.807E-002,3.000,4.300,0.000,0.000,0.000,0.000,7.300,No
 Zone Internal Gains Nominal, BEDROOM3.10,15.00,0.4,35.630,2.807E-002,3.000,4.300,0.000,0.000,0.000,0.000,7.300,No
 Zone Internal Gains Nominal, BEDROOM3.9,18.00,0.5,35.630,2.807E-002,3.000,4.300,0.000,0.000,0.000,0.000,7.300,No
 Zone Internal Gains Nominal, LIVINGROOM3.3,38.70,1.1,35.630,2.807E-002,5.000,4.300,0.000,0.000,0.000,0.000,9.300,No
 Zone Internal Gains Nominal, KITCHEN3.4,10.80,0.3,35.630,2.807E-002,6.000,4.300,0.000,0.000,0.000,0.000,10.300,No
 Zone Internal Gains Nominal, KITCHEN3.1,10.80,0.3,35.630,2.807E-002,6.000,4.300,0.000,0.000,0.000,0.000,10.300,No
 Zone Internal Gains Nominal, BEDROOM3.4,18.00,0.5,35.630,2.807E-002,3.000,4.300,0.000,0.000,0.000,0.000,7.300,No
 Zone Internal Gains Nominal, BEDROOM3.6,26.25,0.7,35.630,2.807E-002,3.000,4.300,0.000,0.000,0.000,0.000,7.300,No
 Zone Internal Gains Nominal, KITCHEN3.3,10.80,0.3,35.630,2.807E-002,6.000,4.300,0.000,0.000,0.000,0.000,10.300,No
 Zone Internal Gains Nominal, KITCHEN3.2,10.80,0.3,35.630,2.807E-002,6.000,4.300,0.000,0.000,0.000,0.000,10.300,No
 Zone Internal Gains Nominal, BEDROOM3.12,18.00,0.5,35.630,2.807E-002,3.000,4.300,0.000,0.000,0.000,0.000,7.300,No
 Zone Internal Gains Nominal, STAIRCASE3.1,49.00,0.0,N/A,0.000,0.000,0.000,0.000,0.000,0.000,0.000,0.000,No
 Zone Internal Gains Nominal, BEDROOM3.3,15.00,0.4,35.630,2.807E-002,3.000,4.300,0.000,0.000,0.000,0.000,7.300,No
 Zone Internal Gains Nominal, BEDROOM3.1,18.00,0.5,35.630,2.807E-002,3.000,4.300,0.000,0.000,0.000,0.000,7.300,No
 Zone Internal Gains Nominal, BEDROOM3.8,26.25,0.7,35.630,2.807E-002,3.000,4.300,0.000,0.000,0.000,0.000,7.300,No
 Zone Internal Gains Nominal, BEDROOM3.2,15.00,0.4,35.630,2.807E-002,3.000,4.300,0.000,0.000,0.000,0.000,7.300,No
 Zone Internal Gains Nominal, LIVINGROOM3.2,38.70,1.1,35.630,2.807E-002,5.000,4.300,0.000,0.000,0.000,0.000,9.300,No
 Zone Internal Gains Nominal, BEDROOM3.7,26.25,0.7,35.630,2.807E-002,3.000,4.300,0.000,0.000,0.000,0.000,7.300,No
! <People Internal Gains Nominal>,Name,Schedule Name,Zone Name,Zone Floor Area {m2},# Zone Occupants,Number of People {},People/Floor Area {person/m2},Floor Area per person {m2/person},Fraction Radiant,Fraction Convected,Sensible Fraction Calculation,Activity level,ASHRAE 55 Warnings,Carbon Dioxide Generation Rate,Nominal Minimum Number of People,Nominal Maximum Number of People
 People Internal Gains Nominal, BEDROOM3.2,BEDROOM OCCUPANCY,BEDROOM3.2,15.00,0.4,0.4,2.807E-002,35.630,0.200,0.800,AutoCalculate,ACTIVITY_ZUOZI HUODONG,No,3.8200E-008,0,0
 People Internal Gains Nominal, KITCHEN1.1,CHUFANG OCCUPANCY,KITCHEN1.1,10.80,0.3,0.3,2.807E-002,35.630,0.200,0.800,AutoCalculate,ACTIVITY_ZUOZI HUODONG,No,3.8200E-008,0,0
 People Internal Gains Nominal, KITCHEN1.2,CHUFANG OCCUPANCY,KITCHEN1.2,10.80,0.3,0.3,2.807E-002,35.630,0.200,0.800,AutoCalculate,ACTIVITY_ZUOZI HUODONG,No,3.8200E-008,0,0
 People Internal Gains Nominal, KITCHEN1.3,CHUFANG OCCUPANCY,KITCHEN1.3,10.80,0.3,0.3,2.807E-002,35.630,0.200,0.800,AutoCalculate,ACTIVITY_ZUOZI HUODONG,No,3.8200E-008,0,0
 People Internal Gains Nominal, KITCHEN1.4,CHUFANG OCCUPANCY,KITCHEN1.4,10.80,0.3,0.3,2.807E-002,35.630,0.200,0.800,AutoCalculate,ACTIVITY_ZUOZI HUODONG,No,3.8200E-008,0,0
 People Internal Gains Nominal, LIVINGROOM1.1,KETING OCCUPANCY,LIVINGROOM1.1,38.70,1.1,1.1,2.807E-002,35.630,0.200,0.800,AutoCalculate,ACTIVITY_ZUOZI HUODONG,No,3.8200E-008,0,1
 People Internal Gains Nominal, LIVINGROOM1.2,KETING OCCUPANCY,LIVINGROOM1.2,38.70,1.1,1.1,2.807E-002,35.630,0.200,0.800,AutoCalculate,ACTIVITY_ZUOZI HUODONG,No,3.8200E-008,0,1
 People Internal Gains Nominal, LIVINGROOM1.3,KETING OCCUPANCY,LIVINGROOM1.3,38.70,1.1,1.1,2.807E-002,35.630,0.200,0.800,AutoCalculate,ACTIVITY_ZUOZI HUODONG,No,3.8200E-008,0,1
 People Internal Gains Nominal, LIVINGROOM1.4,KETING OCCUPANCY,LIVINGROOM1.4,38.70,1.1,1.1,2.807E-002,35.630,0.200,0.800,AutoCalculate,ACTIVITY_ZUOZI HUODONG,No,3.8200E-008,0,1
 People Internal Gains Nominal, BEDROOM1.1,BEDROOM OCCUPANCY,BEDROOM1.1,18.00,0.5,0.5,2.807E-002,35.630,0.200,0.800,AutoCalculate,ACTIVITY_ZUOZI HUODONG,No,3.8200E-008,0,1
 People Internal Gains Nominal, BEDROOM1.2,BEDROOM OCCUPANCY,BEDROOM1.2,15.00,0.4,0.4,2.807E-002,35.630,0.200,0.800,AutoCalculate,ACTIVITY_ZUOZI HUODONG,No,3.8200E-008,0,0
 People Internal Gains Nominal, BEDROOM1.3,BEDROOM OCCUPANCY,BEDROOM1.3,15.00,0.4,0.4,2.807E-002,35.630,0.200,0.800,AutoCalculate,ACTIVITY_ZUOZI HUODONG,No,3.8200E-008,0,0
 People Internal Gains Nominal, BEDROOM1.4,BEDROOM OCCUPANCY,BEDROOM1.4,18.00,0.5,0.5,2.807E-002,35.630,0.200,0.800,AutoCalculate,ACTIVITY_ZUOZI HUODONG,No,3.8200E-008,0,1
 People Internal Gains Nominal, BEDROOM1.5,BEDROOM OCCUPANCY,BEDROOM1.5,26.25,0.7,0.7,2.807E-002,35.630,0.200,0.800,AutoCalculate,ACTIVITY_ZUOZI HUODONG,No,3.8200E-008,0,1
 People Internal Gains Nominal, BEDROOM1.6,BEDROOM OCCUPANCY,BEDROOM1.6,26.25,0.7,0.7,2.807E-002,35.630,0.200,0.800,AutoCalculate,ACTIVITY_ZUOZI HUODONG,No,3.8200E-008,0,1
 People Internal Gains Nominal, BEDROOM1.7,BEDROOM OCCUPANCY,BEDROOM1.7,26.25,0.7,0.7,2.807E-002,35.630,0.200,0.800,AutoCalculate,ACTIVITY_ZUOZI HUODONG,No,3.8200E-008,0,1
 People Internal Gains Nominal, BEDROOM1.8,BEDROOM OCCUPANCY,BEDROOM1.8,26.25,0.7,0.7,2.807E-002,35.630,0.200,0.800,AutoCalculate,ACTIVITY_ZUOZI HUODONG,No,3.8200E-008,0,1
 People Internal Gains Nominal, BEDROOM1.9,BEDROOM OCCUPANCY,BEDROOM1.9,18.00,0.5,0.5,2.807E-002,35.630,0.200,0.800,AutoCalculate,ACTIVITY_ZUOZI HUODONG,No,3.8200E-008,0,1
 People Internal Gains Nominal, BEDROOM1.10,BEDROOM OCCUPANCY,BEDROOM1.10,15.00,0.4,0.4,2.807E-002,35.630,0.200,0.800,AutoCalculate,ACTIVITY_ZUOZI HUODONG,No,3.8200E-008,0,0
 People Internal Gains Nominal, BEDROOM1.11,BEDROOM OCCUPANCY,BEDROOM1.11,15.00,0.4,0.4,2.807E-002,35.630,0.200,0.800,AutoCalculate,ACTIVITY_ZUOZI HUODONG,No,3.8200E-008,0,0
 People Internal Gains Nominal, BEDROOM1.12,BEDROOM OCCUPANCY,BEDROOM1.12,18.00,0.5,0.5,2.807E-002,35.630,0.200,0.800,AutoCalculate,ACTIVITY_ZUOZI HUODONG,No,3.8200E-008,0,1
 People Internal Gains Nominal, KITCHEN2.1,CHUFANG OCCUPANCY,KITCHEN2.1,10.80,0.3,0.3,2.807E-002,35.630,0.200,0.800,AutoCalculate,ACTIVITY_ZUOZI HUODONG,No,3.8200E-008,0,0
 People Internal Gains Nominal, KITCHEN2.2,CHUFANG OCCUPANCY,KITCHEN2.2,10.80,0.3,0.3,2.807E-002,35.630,0.200,0.800,AutoCalculate,ACTIVITY_ZUOZI HUODONG,No,3.8200E-008,0,0
 People Internal Gains Nominal, KITCHEN2.3,CHUFANG OCCUPANCY,KITCHEN2.3,10.80,0.3,0.3,2.807E-002,35.630,0.200,0.800,AutoCalculate,ACTIVITY_ZUOZI HUODONG,No,3.8200E-008,0,0
 People Internal Gains Nominal, KITCHEN2.4,CHUFANG OCCUPANCY,KITCHEN2.4,10.80,0.3,0.3,2.807E-002,35.630,0.200,0.800,AutoCalculate,ACTIVITY_ZUOZI HUODONG,No,3.8200E-008,0,0
 People Internal Gains Nominal, LIVINGROOM2.1,KETING OCCUPANCY,LIVINGROOM2.1,38.70,1.1,1.1,2.807E-002,35.630,0.200,0.800,AutoCalculate,ACTIVITY_ZUOZI HUODONG,No,3.8200E-008,0,1
 People Internal Gains Nominal, LIVINGROOM2.2,KETING OCCUPANCY,LIVINGROOM2.2,38.70,1.1,1.1,2.807E-002,35.630,0.200,0.800,AutoCalculate,ACTIVITY_ZUOZI HUODONG,No,3.8200E-008,0,1
 People Internal Gains Nominal, LIVINGROOM2.3,KETING OCCUPANCY,LIVINGROOM2.3,38.70,1.1,1.1,2.807E-002,35.630,0.200,0.800,AutoCalculate,ACTIVITY_ZUOZI HUODONG,No,3.8200E-008,0,1
 People Internal Gains Nominal, LIVINGROOM2.4,KETING OCCUPANCY,LIVINGROOM2.4,38.70,1.1,1.1,2.807E-002,35.630,0.200,0.800,AutoCalculate,ACTIVITY_ZUOZI HUODONG,No,3.8200E-008,0,1
 People Internal Gains Nominal, BEDROOM2.1,BEDROOM OCCUPANCY,BEDROOM2.1,18.00,0.5,0.5,2.807E-002,35.630,0.200,0.800,AutoCalculate,ACTIVITY_ZUOZI HUODONG,No,3.8200E-008,0,1
 People Internal Gains Nominal, BEDROOM2.3,BEDROOM OCCUPANCY,BEDROOM2.3,15.00,0.4,0.4,2.807E-002,35.630,0.200,0.800,AutoCalculate,ACTIVITY_ZUOZI HUODONG,No,3.8200E-008,0,0
 People Internal Gains Nominal, BEDROOM2.4,BEDROOM OCCUPANCY,BEDROOM2.4,18.00,0.5,0.5,2.807E-002,35.630,0.200,0.800,AutoCalculate,ACTIVITY_ZUOZI HUODONG,No,3.8200E-008,0,1
 People Internal Gains Nominal, BEDROOM2.5,BEDROOM OCCUPANCY,BEDROOM2.5,26.25,0.7,0.7,2.807E-002,35.630,0.200,0.800,AutoCalculate,ACTIVITY_ZUOZI HUODONG,No,3.8200E-008,0,1
 People Internal Gains Nominal, BEDROOM2.6,BEDROOM OCCUPANCY,BEDROOM2.6,26.25,0.7,0.7,2.807E-002,35.630,0.200,0.800,AutoCalculate,ACTIVITY_ZUOZI HUODONG,No,3.8200E-008,0,1
 People Internal Gains Nominal, BEDROOM2.7,BEDROOM OCCUPANCY,BEDROOM2.7,26.25,0.7,0.7,2.807E-002,35.630,0.200,0.800,AutoCalculate,ACTIVITY_ZUOZI HUODONG,No,3.8200E-008,0,1
 People Internal Gains Nominal, BEDROOM2.8,BEDROOM OCCUPANCY,BEDROOM2.8,26.25,0.7,0.7,2.807E-002,35.630,0.200,0.800,AutoCalculate,ACTIVITY_ZUOZI HUODONG,No,3.8200E-008,0,1
 People Internal Gains Nominal, BEDROOM2.9,BEDROOM OCCUPANCY,BEDROOM2.9,18.00,0.5,0.5,2.807E-002,35.630,0.200,0.800,AutoCalculate,ACTIVITY_ZUOZI HUODONG,No,3.8200E-008,0,1
 People Internal Gains Nominal, BEDROOM2.10,BEDROOM OCCUPANCY,BEDROOM2.10,15.00,0.4,0.4,2.807E-002,35.630,0.200,0.800,AutoCalculate,ACTIVITY_ZUOZI HUODONG,No,3.8200E-008,0,0
 People Internal Gains Nominal, BEDROOM2.11,BEDROOM OCCUPANCY,BEDROOM2.11,15.00,0.4,0.4,2.807E-002,35.630,0.200,0.800,AutoCalculate,ACTIVITY_ZUOZI HUODONG,No,3.8200E-008,0,0
 People Internal Gains Nominal, BEDROOM2.12,BEDROOM OCCUPANCY,BEDROOM2.12,18.00,0.5,0.5,2.807E-002,35.630,0.200,0.800,AutoCalculate,ACTIVITY_ZUOZI HUODONG,No,3.8200E-008,0,1
 People Internal Gains Nominal, KITCHEN3.1,CHUFANG OCCUPANCY,KITCHEN3.1,10.80,0.3,0.3,2.807E-002,35.630,0.200,0.800,AutoCalculate,ACTIVITY_ZUOZI HUODONG,No,3.8200E-008,0,0
 People Internal Gains Nominal, KITCHEN3.2,CHUFANG OCCUPANCY,KITCHEN3.2,10.80,0.3,0.3,2.807E-002,35.630,0.200,0.800,AutoCalculate,ACTIVITY_ZUOZI HUODONG,No,3.8200E-008,0,0
 People Internal Gains Nominal, KITCHEN3.3,CHUFANG OCCUPANCY,KITCHEN3.3,10.80,0.3,0.3,2.807E-002,35.630,0.200,0.800,AutoCalculate,ACTIVITY_ZUOZI HUODONG,No,3.8200E-008,0,0
 People Internal Gains Nominal, KITCHEN3.4,CHUFANG OCCUPANCY,KITCHEN3.4,10.80,0.3,0.3,2.807E-002,35.630,0.200,0.800,AutoCalculate,ACTIVITY_ZUOZI HUODONG,No,3.8200E-008,0,0
 People Internal Gains Nominal, LIVINGROOM3.1,KETING OCCUPANCY,LIVINGROOM3.1,38.70,1.1,1.1,2.807E-002,35.630,0.200,0.800,AutoCalculate,ACTIVITY_ZUOZI HUODONG,No,3.8200E-008,0,1
 People Internal Gains Nominal, LIVINGROOM3.2,KETING OCCUPANCY,LIVINGROOM3.2,38.70,1.1,1.1,2.807E-002,35.630,0.200,0.800,AutoCalculate,ACTIVITY_ZUOZI HUODONG,No,3.8200E-008,0,1
 People Internal Gains Nominal, LIVINGROOM3.3,KETING OCCUPANCY,LIVINGROOM3.3,38.70,1.1,1.1,2.807E-002,35.630,0.200,0.800,AutoCalculate,ACTIVITY_ZUOZI HUODONG,No,3.8200E-008,0,1
 People Internal Gains Nominal, LIVINGROOM3.4,KETING OCCUPANCY,LIVINGROOM3.4,38.70,1.1,1.1,2.807E-002,35.630,0.200,0.800,AutoCalculate,ACTIVITY_ZUOZI HUODONG,No,3.8200E-008,0,1
 People Internal Gains Nominal, BEDROOM3.1,BEDROOM OCCUPANCY,BEDROOM3.1,18.00,0.5,0.5,2.807E-002,35.630,0.200,0.800,AutoCalculate,ACTIVITY_ZUOZI HUODONG,No,3.8200E-008,0,1
 People Internal Gains Nominal, BEDROOM3.3,BEDROOM OCCUPANCY,BEDROOM3.3,15.00,0.4,0.4,2.807E-002,35.630,0.200,0.800,AutoCalculate,ACTIVITY_ZUOZI HUODONG,No,3.8200E-008,0,0
 People Internal Gains Nominal, BEDROOM3.4,BEDROOM OCCUPANCY,BEDROOM3.4,18.00,0.5,0.5,2.807E-002,35.630,0.200,0.800,AutoCalculate,ACTIVITY_ZUOZI HUODONG,No,3.8200E-008,0,1
 People Internal Gains Nominal, BEDROOM3.5,BEDROOM OCCUPANCY,BEDROOM3.5,26.25,0.7,0.7,2.807E-002,35.630,0.200,0.800,AutoCalculate,ACTIVITY_ZUOZI HUODONG,No,3.8200E-008,0,1
 People Internal Gains Nominal, BEDROOM3.6,BEDROOM OCCUPANCY,BEDROOM3.6,26.25,0.7,0.7,2.807E-002,35.630,0.200,0.800,AutoCalculate,ACTIVITY_ZUOZI HUODONG,No,3.8200E-008,0,1
 People Internal Gains Nominal, BEDROOM3.7,BEDROOM OCCUPANCY,BEDROOM3.7,26.25,0.7,0.7,2.807E-002,35.630,0.200,0.800,AutoCalculate,ACTIVITY_ZUOZI HUODONG,No,3.8200E-008,0,1
 People Internal Gains Nominal, BEDROOM3.8,BEDROOM OCCUPANCY,BEDROOM3.8,26.25,0.7,0.7,2.807E-002,35.630,0.200,0.800,AutoCalculate,ACTIVITY_ZUOZI HUODONG,No,3.8200E-008,0,1
 People Internal Gains Nominal, BEDROOM3.9,BEDROOM OCCUPANCY,BEDROOM3.9,18.00,0.5,0.5,2.807E-002,35.630,0.200,0.800,AutoCalculate,ACTIVITY_ZUOZI HUODONG,No,3.8200E-008,0,1
 People Internal Gains Nominal, BEDROOM3.10,BEDROOM OCCUPANCY,BEDROOM3.10,15.00,0.4,0.4,2.807E-002,35.630,0.200,0.800,AutoCalculate,ACTIVITY_ZUOZI HUODONG,No,3.8200E-008,0,0
 People Internal Gains Nominal, BEDROOM3.11,BEDROOM OCCUPANCY,BEDROOM3.11,15.00,0.4,0.4,2.807E-002,35.630,0.200,0.800,AutoCalculate,ACTIVITY_ZUOZI HUODONG,No,3.8200E-008,0,0
 People Internal Gains Nominal, BEDROOM3.12,BEDROOM OCCUPANCY,BEDROOM3.12,18.00,0.5,0.5,2.807E-002,35.630,0.200,0.800,AutoCalculate,ACTIVITY_ZUOZI HUODONG,No,3.8200E-008,0,1
 People Internal Gains Nominal, BEDROOM2.2,BEDROOM OCCUPANCY,BEDROOM2.2,15.00,0.4,0.4,2.807E-002,35.630,0.200,0.800,AutoCalculate,ACTIVITY_ZUOZI HUODONG,No,3.8200E-008,0,0,Zone Averaged,WORK EFFICIENCY,Clothing Insulation Schedule,N/A,CLOTHING INSULATION SCHEDULE,AIR VELOCITY SCHEDULE,Yes,No,No
! <Lights Internal Gains Nominal>,Name,Schedule Name,Zone Name,Zone Floor Area {m2},# Zone Occupants,Lighting Level {W},Lights/Floor Area {W/m2},Lights per person {W/person},Fraction Return Air,Fraction Radiant,Fraction Short Wave,Fraction Convected,Fraction Replaceable,End-Use Category,Nominal Minimum Lighting Level {W},Nominal Maximum Lighting Level {W}
 Lights Internal Gains Nominal, KITCHEN1.1,LIGHTING CHUFANG,KITCHEN1.1,10.80,0.3,64.800,6.000,213.780,0.000,0.720,0.180,0.100,1.000,General,0.000,51.840
 Lights Internal Gains Nominal, KITCHEN1.2,LIGHTING CHUFANG,KITCHEN1.2,10.80,0.3,64.800,6.000,213.780,0.000,0.720,0.180,0.100,1.000,General,0.000,51.840
 Lights Internal Gains Nominal, KITCHEN1.3,LIGHTING CHUFANG,KITCHEN1.3,10.80,0.3,64.800,6.000,213.780,0.000,0.720,0.180,0.100,1.000,General,0.000,51.840
 Lights Internal Gains Nominal, KITCHEN1.4,LIGHTING CHUFANG,KITCHEN1.4,10.80,0.3,64.800,6.000,213.780,0.000,0.720,0.180,0.100,1.000,General,0.000,51.840
 Lights Internal Gains Nominal, LIVINGROOM1.1,LIGHT-KETING,LIVINGROOM1.1,38.70,1.1,193.500,5.000,178.150,0.000,0.720,0.180,0.100,1.000,General,0.000,193.500
 Lights Internal Gains Nominal, LIVINGROOM1.2,LIGHT-KETING,LIVINGROOM1.2,38.70,1.1,193.500,5.000,178.150,0.000,0.720,0.180,0.100,1.000,General,0.000,193.500
 Lights Internal Gains Nominal, LIVINGROOM1.3,LIGHT-KETING,LIVINGROOM1.3,38.70,1.1,193.500,5.000,178.150,0.000,0.720,0.180,0.100,1.000,General,0.000,193.500
 Lights Internal Gains Nominal, LIVINGROOM1.4,LIGHT-KETING,LIVINGROOM1.4,38.70,1.1,193.500,5.000,178.150,0.000,0.720,0.180,0.100,1.000,General,0.000,193.500
 Lights Internal Gains Nominal, BEDROOM1.1,LIGHT-BEDROOM,BEDROOM1.1,18.00,0.5,54.000,3.000,106.890,0.000,0.720,0.180,0.100,1.000,General,0.000,54.000
 Lights Internal Gains Nominal, BEDROOM1.2,LIGHT-BEDROOM,BEDROOM1.2,15.00,0.4,45.000,3.000,106.890,0.000,0.720,0.180,0.100,1.000,General,0.000,45.000
 Lights Internal Gains Nominal, BEDROOM1.3,LIGHT-BEDROOM,BEDROOM1.3,15.00,0.4,45.000,3.000,106.890,0.000,0.720,0.180,0.100,1.000,General,0.000,45.000
 Lights Internal Gains Nominal, BEDROOM1.4,LIGHT-BEDROOM,BEDROOM1.4,18.00,0.5,54.000,3.000,106.890,0.000,0.720,0.180,0.100,1.000,General,0.000,54.000
 Lights Internal Gains Nominal, BEDROOM1.5,LIGHT-BEDROOM,BEDROOM1.5,26.25,0.7,78.750,3.000,106.890,0.000,0.720,0.180,0.100,1.000,General,0.000,78.750
 Lights Internal Gains Nominal, BEDROOM1.6,LIGHT-BEDROOM,BEDROOM1.6,26.25,0.7,78.750,3.000,106.890,0.000,0.720,0.180,0.100,1.000,General,0.000,78.750
 Lights Internal Gains Nominal, BEDROOM1.7,LIGHT-BEDROOM,BEDROOM1.7,26.25,0.7,78.750,3.000,106.890,0.000,0.720,0.180,0.100,1.000,General,0.000,78.750
 Lights Internal Gains Nominal, BEDROOM1.8,LIGHT-BEDROOM,BEDROOM1.8,26.25,0.7,78.750,3.000,106.890,0.000,0.720,0.180,0.100,1.000,General,0.000,78.750
 Lights Internal Gains Nominal, BEDROOM1.9,LIGHT-BEDROOM,BEDROOM1.9,18.00,0.5,54.000,3.000,106.890,0.000,0.720,0.180,0.100,1.000,General,0.000,54.000
 Lights Internal Gains Nominal, BEDROOM1.10,LIGHT-BEDROOM,BEDROOM1.10,15.00,0.4,45.000,3.000,106.890,0.000,0.720,0.180,0.100,1.000,General,0.000,45.000
 Lights Internal Gains Nominal, BEDROOM1.11,LIGHT-BEDROOM,BEDROOM1.11,15.00,0.4,45.000,3.000,106.890,0.000,0.720,0.180,0.100,1.000,General,0.000,45.000
 Lights Internal Gains Nominal, BEDROOM1.12,LIGHT-BEDROOM,BEDROOM1.12,18.00,0.5,54.000,3.000,106.890,0.000,0.720,0.180,0.100,1.000,General,0.000,54.000
 Lights Internal Gains Nominal, KITCHEN2.1,LIGHTING CHUFANG,KITCHEN2.1,10.80,0.3,64.800,6.000,213.780,0.000,0.720,0.180,0.100,1.000,General,0.000,51.840
 Lights Internal Gains Nominal, KITCHEN2.2,LIGHTING CHUFANG,KITCHEN2.2,10.80,0.3,64.800,6.000,213.780,0.000,0.720,0.180,0.100,1.000,General,0.000,51.840
 Lights Internal Gains Nominal, KITCHEN2.3,LIGHTING CHUFANG,KITCHEN2.3,10.80,0.3,64.800,6.000,213.780,0.000,0.720,0.180,0.100,1.000,General,0.000,51.840
 Lights Internal Gains Nominal, KITCHEN2.4,LIGHTING CHUFANG,KITCHEN2.4,10.80,0.3,64.800,6.000,213.780,0.000,0.720,0.180,0.100,1.000,General,0.000,51.840
 Lights Internal Gains Nominal, LIVINGROOM2.1,LIGHT-KETING,LIVINGROOM2.1,38.70,1.1,193.500,5.000,178.150,0.000,0.720,0.180,0.100,1.000,General,0.000,193.500
 Lights Internal Gains Nominal, LIVINGROOM2.2,LIGHT-KETING,LIVINGROOM2.2,38.70,1.1,193.500,5.000,178.150,0.000,0.720,0.180,0.100,1.000,General,0.000,193.500
 Lights Internal Gains Nominal, LIVINGROOM2.3,LIGHT-KETING,LIVINGROOM2.3,38.70,1.1,193.500,5.000,178.150,0.000,0.720,0.180,0.100,1.000,General,0.000,193.500
 Lights Internal Gains Nominal, LIVINGROOM2.4,LIGHT-KETING,LIVINGROOM2.4,38.70,1.1,193.500,5.000,178.150,0.000,0.720,0.180,0.100,1.000,General,0.000,193.500
 Lights Internal Gains Nominal, BEDROOM2.1,LIGHT-BEDROOM,BEDROOM2.1,18.00,0.5,54.000,3.000,106.890,0.000,0.720,0.180,0.100,1.000,General,0.000,54.000
 Lights Internal Gains Nominal, BEDROOM2.2,LIGHT-BEDROOM,BEDROOM2.2,15.00,0.4,45.000,3.000,106.890,0.000,0.720,0.180,0.100,1.000,General,0.000,45.000
 Lights Internal Gains Nominal, BEDROOM2.3,LIGHT-BEDROOM,BEDROOM2.3,15.00,0.4,45.000,3.000,106.890,0.000,0.720,0.180,0.100,1.000,General,0.000,45.000
 Lights Internal Gains Nominal, BEDROOM2.4,LIGHT-BEDROOM,BEDROOM2.4,18.00,0.5,54.000,3.000,106.890,0.000,0.720,0.180,0.100,1.000,General,0.000,54.000
 Lights Internal Gains Nominal, BEDROOM2.5,LIGHT-BEDROOM,BEDROOM2.5,26.25,0.7,78.750,3.000,106.890,0.000,0.720,0.180,0.100,1.000,General,0.000,78.750
 Lights Internal Gains Nominal, BEDROOM2.6,LIGHT-BEDROOM,BEDROOM2.6,26.25,0.7,78.750,3.000,106.890,0.000,0.720,0.180,0.100,1.000,General,0.000,78.750
 Lights Internal Gains Nominal, BEDROOM2.7,LIGHT-BEDROOM,BEDROOM2.7,26.25,0.7,78.750,3.000,106.890,0.000,0.720,0.180,0.100,1.000,General,0.000,78.750
 Lights Internal Gains Nominal, BEDROOM2.8,LIGHT-BEDROOM,BEDROOM2.8,26.25,0.7,78.750,3.000,106.890,0.000,0.720,0.180,0.100,1.000,General,0.000,78.750
 Lights Internal Gains Nominal, BEDROOM2.9,LIGHT-BEDROOM,BEDROOM2.9,18.00,0.5,54.000,3.000,106.890,0.000,0.720,0.180,0.100,1.000,General,0.000,54.000
 Lights Internal Gains Nominal, BEDROOM2.10,LIGHT-BEDROOM,BEDROOM2.10,15.00,0.4,45.000,3.000,106.890,0.000,0.720,0.180,0.100,1.000,General,0.000,45.000
 Lights Internal Gains Nominal, BEDROOM2.11,LIGHT-BEDROOM,BEDROOM2.11,15.00,0.4,45.000,3.000,106.890,0.000,0.720,0.180,0.100,1.000,General,0.000,45.000
 Lights Internal Gains Nominal, BEDROOM2.12,LIGHT-BEDROOM,BEDROOM2.12,18.00,0.5,54.000,3.000,106.890,0.000,0.720,0.180,0.100,1.000,General,0.000,54.000
 Lights Internal Gains Nominal, KITCHEN3.1,LIGHTING CHUFANG,KITCHEN3.1,10.80,0.3,64.800,6.000,213.780,0.000,0.720,0.180,0.100,1.000,General,0.000,51.840
 Lights Internal Gains Nominal, KITCHEN3.2,LIGHTING CHUFANG,KITCHEN3.2,10.80,0.3,64.800,6.000,213.780,0.000,0.720,0.180,0.100,1.000,General,0.000,51.840
 Lights Internal Gains Nominal, KITCHEN3.3,LIGHTING CHUFANG,KITCHEN3.3,10.80,0.3,64.800,6.000,213.780,0.000,0.720,0.180,0.100,1.000,General,0.000,51.840
 Lights Internal Gains Nominal, KITCHEN3.4,LIGHTING CHUFANG,KITCHEN3.4,10.80,0.3,64.800,6.000,213.780,0.000,0.720,0.180,0.100,1.000,General,0.000,51.840
 Lights Internal Gains Nominal, LIVINGROOM3.1,LIGHT-KETING,LIVINGROOM3.1,38.70,1.1,193.500,5.000,178.150,0.000,0.720,0.180,0.100,1.000,General,0.000,193.500
 Lights Internal Gains Nominal, LIVINGROOM3.2,LIGHT-KETING,LIVINGROOM3.2,38.70,1.1,193.500,5.000,178.150,0.000,0.720,0.180,0.100,1.000,General,0.000,193.500
 Lights Internal Gains Nominal, LIVINGROOM3.3,LIGHT-KETING,LIVINGROOM3.3,38.70,1.1,193.500,5.000,178.150,0.000,0.720,0.180,0.100,1.000,General,0.000,193.500
 Lights Internal Gains Nominal, LIVINGROOM3.4,LIGHT-KETING,LIVINGROOM3.4,38.70,1.1,193.500,5.000,178.150,0.000,0.720,0.180,0.100,1.000,General,0.000,193.500
 Lights Internal Gains Nominal, BEDROOM3.1,LIGHT-BEDROOM,BEDROOM3.1,18.00,0.5,54.000,3.000,106.890,0.000,0.720,0.180,0.100,1.000,General,0.000,54.000
 Lights Internal Gains Nominal, BEDROOM3.2,LIGHT-BEDROOM,BEDROOM3.2,15.00,0.4,45.000,3.000,106.890,0.000,0.720,0.180,0.100,1.000,General,0.000,45.000
 Lights Internal Gains Nominal, BEDROOM3.3,LIGHT-BEDROOM,BEDROOM3.3,15.00,0.4,45.000,3.000,106.890,0.000,0.720,0.180,0.100,1.000,General,0.000,45.000
 Lights Internal Gains Nominal, BEDROOM3.4,LIGHT-BEDROOM,BEDROOM3.4,18.00,0.5,54.000,3.000,106.890,0.000,0.720,0.180,0.100,1.000,General,0.000,54.000
 Lights Internal Gains Nominal, BEDROOM3.5,LIGHT-BEDROOM,BEDROOM3.5,26.25,0.7,78.750,3.000,106.890,0.000,0.720,0.180,0.100,1.000,General,0.000,78.750
 Lights Internal Gains Nominal, BEDROOM3.6,LIGHT-BEDROOM,BEDROOM3.6,26.25,0.7,78.750,3.000,106.890,0.000,0.720,0.180,0.100,1.000,General,0.000,78.750
 Lights Internal Gains Nominal, BEDROOM3.7,LIGHT-BEDROOM,BEDROOM3.7,26.25,0.7,78.750,3.000,106.890,0.000,0.720,0.180,0.100,1.000,General,0.000,78.750
 Lights Internal Gains Nominal, BEDROOM3.8,LIGHT-BEDROOM,BEDROOM3.8,26.25,0.7,78.750,3.000,106.890,0.000,0.720,0.180,0.100,1.000,General,0.000,78.750
 Lights Internal Gains Nominal, BEDROOM3.9,LIGHT-BEDROOM,BEDROOM3.9,18.00,0.5,54.000,3.000,106.890,0.000,0.720,0.180,0.100,1.000,General,0.000,54.000
 Lights Internal Gains Nominal, BEDROOM3.10,LIGHT-BEDROOM,BEDROOM3.10,15.00,0.4,45.000,3.000,106.890,0.000,0.720,0.180,0.100,1.000,General,0.000,45.000
 Lights Internal Gains Nominal, BEDROOM3.11,LIGHT-BEDROOM,BEDROOM3.11,15.00,0.4,45.000,3.000,106.890,0.000,0.720,0.180,0.100,1.000,General,0.000,45.000
 Lights Internal Gains Nominal, BEDROOM3.12,LIGHT-BEDROOM,BEDROOM3.12,18.00,0.5,54.000,3.000,106.890,0.000,0.720,0.180,0.100,1.000,General,0.000,54.000
! <ElectricEquipment Internal Gains Nominal>,Name,Schedule Name,Zone Name,Zone Floor Area {m2},# Zone Occupants,Equipment Level {W},Equipment/Floor Area {W/m2},Equipment per person {W/person},Fraction Latent,Fraction Radiant,Fraction Lost,Fraction Convected,End-Use SubCategory,Nominal Minimum Equipment Level {W},Nominal Maximum Equipment Level {W}
 ElectricEquipment Internal Gains Nominal, KITCHEN1.1,EQUIPMENT CHUFANG,KITCHEN1.1,10.80,0.3,46.440,4.300,153.209,0.000,0.250,0.000,0.750,General,0.000,46.440
 ElectricEquipment Internal Gains Nominal, KITCHEN1.2,EQUIPMENT CHUFANG,KITCHEN1.2,10.80,0.3,46.440,4.300,153.209,0.000,0.250,0.000,0.750,General,0.000,46.440
 ElectricEquipment Internal Gains Nominal, KITCHEN1.3,EQUIPMENT CHUFANG,KITCHEN1.3,10.80,0.3,46.440,4.300,153.209,0.000,0.250,0.000,0.750,General,0.000,46.440
 ElectricEquipment Internal Gains Nominal, KITCHEN1.4,EQUIPMENT CHUFANG,KITCHEN1.4,10.80,0.3,46.440,4.300,153.209,0.000,0.250,0.000,0.750,General,0.000,46.440
 ElectricEquipment Internal Gains Nominal, LIVINGROOM1.1,EQUIPMENT-KETING,LIVINGROOM1.1,38.70,1.1,166.410,4.300,153.209,0.000,0.250,0.000,0.750,General,37.609,166.410
 ElectricEquipment Internal Gains Nominal, LIVINGROOM1.2,EQUIPMENT-KETING,LIVINGROOM1.2,38.70,1.1,166.410,4.300,153.209,0.000,0.250,0.000,0.750,General,37.609,166.410
 ElectricEquipment Internal Gains Nominal, LIVINGROOM1.3,EQUIPMENT-KETING,LIVINGROOM1.3,38.70,1.1,166.410,4.300,153.209,0.000,0.250,0.000,0.750,General,37.609,166.410
 ElectricEquipment Internal Gains Nominal, LIVINGROOM1.4,EQUIPMENT-KETING,LIVINGROOM1.4,38.70,1.1,166.410,4.300,153.209,0.000,0.250,0.000,0.750,General,37.609,166.410
 ElectricEquipment Internal Gains Nominal, BEDROOM1.1,EQUIPMENT-BEDROOM,BEDROOM1.1,18.00,0.5,77.400,4.300,153.209,0.000,0.250,0.000,0.750,General,0.000,77.400
 ElectricEquipment Internal Gains Nominal, BEDROOM1.2,EQUIPMENT-BEDROOM,BEDROOM1.2,15.00,0.4,64.500,4.300,153.209,0.000,0.250,0.000,0.750,General,0.000,64.500
 ElectricEquipment Internal Gains Nominal, BEDROOM1.3,EQUIPMENT-BEDROOM,BEDROOM1.3,15.00,0.4,64.500,4.300,153.209,0.000,0.250,0.000,0.750,General,0.000,64.500
 ElectricEquipment Internal Gains Nominal, BEDROOM1.4,EQUIPMENT-BEDROOM,BEDROOM1.4,18.00,0.5,77.400,4.300,153.209,0.000,0.250,0.000,0.750,General,0.000,77.400
 ElectricEquipment Internal Gains Nominal, BEDROOM1.5,EQUIPMENT-BEDROOM,BEDROOM1.5,26.25,0.7,112.875,4.300,153.209,0.000,0.250,0.000,0.750,General,0.000,112.875
 ElectricEquipment Internal Gains Nominal, BEDROOM1.6,EQUIPMENT-BEDROOM,BEDROOM1.6,26.25,0.7,112.875,4.300,153.209,0.000,0.250,0.000,0.750,General,0.000,112.875
 ElectricEquipment Internal Gains Nominal, BEDROOM1.7,EQUIPMENT-BEDROOM,BEDROOM1.7,26.25,0.7,112.875,4.300,153.209,0.000,0.250,0.000,0.750,General,0.000,112.875
 ElectricEquipment Internal Gains Nominal, BEDROOM1.8,EQUIPMENT-BEDROOM,BEDROOM1.8,26.25,0.7,112.875,4.300,153.209,0.000,0.250,0.000,0.750,General,0.000,112.875
 ElectricEquipment Internal Gains Nominal, BEDROOM1.9,EQUIPMENT-BEDROOM,BEDROOM1.9,18.00,0.5,77.400,4.300,153.209,0.000,0.250,0.000,0.750,General,0.000,77.400
 ElectricEquipment Internal Gains Nominal, BEDROOM1.10,EQUIPMENT-BEDROOM,BEDROOM1.10,15.00,0.4,64.500,4.300,153.209,0.000,0.250,0.000,0.750,General,0.000,64.500
 ElectricEquipment Internal Gains Nominal, BEDROOM1.11,EQUIPMENT-BEDROOM,BEDROOM1.11,15.00,0.4,64.500,4.300,153.209,0.000,0.250,0.000,0.750,General,0.000,64.500
 ElectricEquipment Internal Gains Nominal, BEDROOM1.12,EQUIPMENT-BEDROOM,BEDROOM1.12,18.00,0.5,77.400,4.300,153.209,0.000,0.250,0.000,0.750,General,0.000,77.400
 ElectricEquipment Internal Gains Nominal, KITCHEN2.1,EQUIPMENT CHUFANG,KITCHEN2.1,10.80,0.3,46.440,4.300,153.209,0.000,0.250,0.000,0.750,General,0.000,46.440
 ElectricEquipment Internal Gains Nominal, KITCHEN2.2,EQUIPMENT CHUFANG,KITCHEN2.2,10.80,0.3,46.440,4.300,153.209,0.000,0.250,0.000,0.750,General,0.000,46.440
 ElectricEquipment Internal Gains Nominal, KITCHEN2.3,EQUIPMENT CHUFANG,KITCHEN2.3,10.80,0.3,46.440,4.300,153.209,0.000,0.250,0.000,0.750,General,0.000,46.440
 ElectricEquipment Internal Gains Nominal, KITCHEN2.4,EQUIPMENT CHUFANG,KITCHEN2.4,10.80,0.3,46.440,4.300,153.209,0.000,0.250,0.000,0.750,General,0.000,46.440
 ElectricEquipment Internal Gains Nominal, LIVINGROOM2.1,EQUIPMENT-KETING,LIVINGROOM2.1,38.70,1.1,166.410,4.300,153.209,0.000,0.250,0.000,0.750,General,37.609,166.410
 ElectricEquipment Internal Gains Nominal, LIVINGROOM2.2,EQUIPMENT-KETING,LIVINGROOM2.2,38.70,1.1,166.410,4.300,153.209,0.000,0.250,0.000,0.750,General,37.609,166.410
 ElectricEquipment Internal Gains Nominal, LIVINGROOM2.3,EQUIPMENT-KETING,LIVINGROOM2.3,38.70,1.1,166.410,4.300,153.209,0.000,0.250,0.000,0.750,General,37.609,166.410
 ElectricEquipment Internal Gains Nominal, LIVINGROOM2.4,EQUIPMENT-KETING,LIVINGROOM2.4,38.70,1.1,166.410,4.300,153.209,0.000,0.250,0.000,0.750,General,37.609,166.410
 ElectricEquipment Internal Gains Nominal, BEDROOM2.1,EQUIPMENT-BEDROOM,BEDROOM2.1,18.00,0.5,77.400,4.300,153.209,0.000,0.250,0.000,0.750,General,0.000,77.400
 ElectricEquipment Internal Gains Nominal, BEDROOM2.2,EQUIPMENT-BEDROOM,BEDROOM2.2,15.00,0.4,64.500,4.300,153.209,0.000,0.250,0.000,0.750,General,0.000,64.500
 ElectricEquipment Internal Gains Nominal, BEDROOM2.3,EQUIPMENT-BEDROOM,BEDROOM2.3,15.00,0.4,64.500,4.300,153.209,0.000,0.250,0.000,0.750,General,0.000,64.500
 ElectricEquipment Internal Gains Nominal, BEDROOM2.4,EQUIPMENT-BEDROOM,BEDROOM2.4,18.00,0.5,77.400,4.300,153.209,0.000,0.250,0.000,0.750,General,0.000,77.400
 ElectricEquipment Internal Gains Nominal, BEDROOM2.5,EQUIPMENT-BEDROOM,BEDROOM2.5,26.25,0.7,112.875,4.300,153.209,0.000,0.250,0.000,0.750,General,0.000,112.875
 ElectricEquipment Internal Gains Nominal, BEDROOM2.6,EQUIPMENT-BEDROOM,BEDROOM2.6,26.25,0.7,112.875,4.300,153.209,0.000,0.250,0.000,0.750,General,0.000,112.875
 ElectricEquipment Internal Gains Nominal, BEDROOM2.7,EQUIPMENT-BEDROOM,BEDROOM2.7,26.25,0.7,112.875,4.300,153.209,0.000,0.250,0.000,0.750,General,0.000,112.875
 ElectricEquipment Internal Gains Nominal, BEDROOM2.8,EQUIPMENT-BEDROOM,BEDROOM2.8,26.25,0.7,112.875,4.300,153.209,0.000,0.250,0.000,0.750,General,0.000,112.875
 ElectricEquipment Internal Gains Nominal, BEDROOM2.9,EQUIPMENT-BEDROOM,BEDROOM2.9,18.00,0.5,77.400,4.300,153.209,0.000,0.250,0.000,0.750,General,0.000,77.400
 ElectricEquipment Internal Gains Nominal, BEDROOM2.10,EQUIPMENT-BEDROOM,BEDROOM2.10,15.00,0.4,64.500,4.300,153.209,0.000,0.250,0.000,0.750,General,0.000,64.500
 ElectricEquipment Internal Gains Nominal, BEDROOM2.11,EQUIPMENT-BEDROOM,BEDROOM2.11,15.00,0.4,64.500,4.300,153.209,0.000,0.250,0.000,0.750,General,0.000,64.500
 ElectricEquipment Internal Gains Nominal, BEDROOM2.12,EQUIPMENT-BEDROOM,BEDROOM2.12,18.00,0.5,77.400,4.300,153.209,0.000,0.250,0.000,0.750,General,0.000,77.400
 ElectricEquipment Internal Gains Nominal, KITCHEN3.1,EQUIPMENT CHUFANG,KITCHEN3.1,10.80,0.3,46.440,4.300,153.209,0.000,0.250,0.000,0.750,General,0.000,46.440
 ElectricEquipment Internal Gains Nominal, KITCHEN3.2,EQUIPMENT CHUFANG,KITCHEN3.2,10.80,0.3,46.440,4.300,153.209,0.000,0.250,0.000,0.750,General,0.000,46.440
 ElectricEquipment Internal Gains Nominal, KITCHEN3.3,EQUIPMENT CHUFANG,KITCHEN3.3,10.80,0.3,46.440,4.300,153.209,0.000,0.250,0.000,0.750,General,0.000,46.440
 ElectricEquipment Internal Gains Nominal, KITCHEN3.4,EQUIPMENT CHUFANG,KITCHEN3.4,10.80,0.3,46.440,4.300,153.209,0.000,0.250,0.000,0.750,General,0.000,46.440
 ElectricEquipment Internal Gains Nominal, LIVINGROOM3.1,EQUIPMENT-KETING,LIVINGROOM3.1,38.70,1.1,166.410,4.300,153.209,0.000,0.250,0.000,0.750,General,37.609,166.410
 ElectricEquipment Internal Gains Nominal, LIVINGROOM3.2,EQUIPMENT-KETING,LIVINGROOM3.2,38.70,1.1,166.410,4.300,153.209,0.000,0.250,0.000,0.750,General,37.609,166.410
 ElectricEquipment Internal Gains Nominal, LIVINGROOM3.3,EQUIPMENT-KETING,LIVINGROOM3.3,38.70,1.1,166.410,4.300,153.209,0.000,0.250,0.000,0.750,General,37.609,166.410
 ElectricEquipment Internal Gains Nominal, LIVINGROOM3.4,EQUIPMENT-KETING,LIVINGROOM3.4,38.70,1.1,166.410,4.300,153.209,0.000,0.250,0.000,0.750,General,37.609,166.410
 ElectricEquipment Internal Gains Nominal, BEDROOM3.1,EQUIPMENT-BEDROOM,BEDROOM3.1,18.00,0.5,77.400,4.300,153.209,0.000,0.250,0.000,0.750,General,0.000,77.400
 ElectricEquipment Internal Gains Nominal, BEDROOM3.2,EQUIPMENT-BEDROOM,BEDROOM3.2,15.00,0.4,64.500,4.300,153.209,0.000,0.250,0.000,0.750,General,0.000,64.500
 ElectricEquipment Internal Gains Nominal, BEDROOM3.3,EQUIPMENT-BEDROOM,BEDROOM3.3,15.00,0.4,64.500,4.300,153.209,0.000,0.250,0.000,0.750,General,0.000,64.500
 ElectricEquipment Internal Gains Nominal, BEDROOM3.4,EQUIPMENT-BEDROOM,BEDROOM3.4,18.00,0.5,77.400,4.300,153.209,0.000,0.250,0.000,0.750,General,0.000,77.400
 ElectricEquipment Internal Gains Nominal, BEDROOM3.5,EQUIPMENT-BEDROOM,BEDROOM3.5,26.25,0.7,112.875,4.300,153.209,0.000,0.250,0.000,0.750,General,0.000,112.875
 ElectricEquipment Internal Gains Nominal, BEDROOM3.6,EQUIPMENT-BEDROOM,BEDROOM3.6,26.25,0.7,112.875,4.300,153.209,0.000,0.250,0.000,0.750,General,0.000,112.875
 ElectricEquipment Internal Gains Nominal, BEDROOM3.7,EQUIPMENT-BEDROOM,BEDROOM3.7,26.25,0.7,112.875,4.300,153.209,0.000,0.250,0.000,0.750,General,0.000,112.875
 ElectricEquipment Internal Gains Nominal, BEDROOM3.8,EQUIPMENT-BEDROOM,BEDROOM3.8,26.25,0.7,112.875,4.300,153.209,0.000,0.250,0.000,0.750,General,0.000,112.875
 ElectricEquipment Internal Gains Nominal, BEDROOM3.9,EQUIPMENT-BEDROOM,BEDROOM3.9,18.00,0.5,77.400,4.300,153.209,0.000,0.250,0.000,0.750,General,0.000,77.400
 ElectricEquipment Internal Gains Nominal, BEDROOM3.10,EQUIPMENT-BEDROOM,BEDROOM3.10,15.00,0.4,64.500,4.300,153.209,0.000,0.250,0.000,0.750,General,0.000,64.500
 ElectricEquipment Internal Gains Nominal, BEDROOM3.11,EQUIPMENT-BEDROOM,BEDROOM3.11,15.00,0.4,64.500,4.300,153.209,0.000,0.250,0.000,0.750,General,0.000,64.500
 ElectricEquipment Internal Gains Nominal, BEDROOM3.12,EQUIPMENT-BEDROOM,BEDROOM3.12,18.00,0.5,77.400,4.300,153.209,0.000,0.250,0.000,0.750,General,0.000,77.400
! <Shadowing/Sun Position Calculations Annual Simulations>, Calculation Method, Value {days}, Allowable Number Figures in Shadow Overlap {}, Polygon Clipping Algorithm, Sky Diffuse Modeling Algorithm
Shadowing/Sun Position Calculations Annual Simulations,AverageOverDaysInFrequency,20,15000,SutherlandHodgman,SimpleSkyDiffuseModeling
! <ZoneInfiltration Airflow Stats Nominal>,Name,Schedule Name,Zone Name, Zone Floor Area {m2}, # Zone Occupants,Design Volume Flow Rate {m3/s},Volume Flow Rate/Floor Area {m3/s/m2},Volume Flow Rate/Exterior Surface Area {m3/s/m2},ACH - Air Changes per Hour,Equation A - Constant Term Coefficient {},Equation B - Temperature Term Coefficient {1/C},Equation C - Velocity Term Coefficient {s/m}, Equation D - Velocity Squared Term Coefficient {s2/m2}
 ZoneInfiltration Airflow Stats Nominal, KITCHEN1.1,ALWAYS ON,KITCHEN1.1,10.80,0.3,9.000E-003,8.333E-004,N/A,1.000,0.606,3.600E-002,0.118,0.000
 ZoneInfiltration Airflow Stats Nominal, KITCHEN1.2,ALWAYS ON,KITCHEN1.2,10.80,0.3,9.000E-003,8.333E-004,N/A,1.000,0.606,3.600E-002,0.118,0.000
 ZoneInfiltration Airflow Stats Nominal, KITCHEN1.3,ALWAYS ON,KITCHEN1.3,10.80,0.3,9.000E-003,8.333E-004,N/A,1.000,0.606,3.600E-002,0.118,0.000
 ZoneInfiltration Airflow Stats Nominal, KITCHEN1.4,ALWAYS ON,KITCHEN1.4,10.80,0.3,9.000E-003,8.333E-004,N/A,1.000,0.606,3.600E-002,0.118,0.000
 ZoneInfiltration Airflow Stats Nominal, LIVINGROOM1.1,ALWAYS ON,LIVINGROOM1.1,38.70,1.1,3.225E-002,8.333E-004,2.389E-003,1.000,0.606,3.600E-002,0.118,0.000
 ZoneInfiltration Airflow Stats Nominal, LIVINGROOM1.2,ALWAYS ON,LIVINGROOM1.2,38.70,1.1,3.225E-002,8.333E-004,2.389E-003,1.000,0.606,3.600E-002,0.118,0.000
 ZoneInfiltration Airflow Stats Nominal, LIVINGROOM1.3,ALWAYS ON,LIVINGROOM1.3,38.70,1.1,3.225E-002,8.333E-004,2.389E-003,1.000,0.606,3.600E-002,0.118,0.000
 ZoneInfiltration Airflow Stats Nominal, LIVINGROOM1.4,ALWAYS ON,LIVINGROOM1.4,38.70,1.1,3.225E-002,8.333E-004,2.389E-003,1.000,0.606,3.600E-002,0.118,0.000
 ZoneInfiltration Airflow Stats Nominal, BEDROOM1.1,ALWAYS ON,BEDROOM1.1,18.00,0.5,1.500E-002,8.333E-004,5.556E-004,1.000,0.606,3.600E-002,0.118,0.000
 ZoneInfiltration Airflow Stats Nominal, BEDROOM1.2,ALWAYS ON,BEDROOM1.2,15.00,0.4,1.250E-002,8.333E-004,8.333E-004,1.000,0.606,3.600E-002,0.118,0.000
 ZoneInfiltration Airflow Stats Nominal, BEDROOM1.3,ALWAYS ON,BEDROOM1.3,15.00,0.4,1.250E-002,8.333E-004,8.333E-004,1.000,0.606,3.600E-002,0.118,0.000
 ZoneInfiltration Airflow Stats Nominal, BEDROOM1.4,ALWAYS ON,BEDROOM1.4,18.00,0.5,1.500E-002,8.333E-004,5.556E-004,1.000,0.606,3.600E-002,0.118,0.000
 ZoneInfiltration Airflow Stats Nominal, BEDROOM1.5,ALWAYS ON,BEDROOM1.5,26.25,0.7,2.188E-002,8.333E-004,2.083E-003,1.000,0.606,3.600E-002,0.118,0.000
 ZoneInfiltration Airflow Stats Nominal, BEDROOM1.6,ALWAYS ON,BEDROOM1.6,26.25,0.7,2.188E-002,8.333E-004,2.083E-003,1.000,0.606,3.600E-002,0.118,0.000
 ZoneInfiltration Airflow Stats Nominal, BEDROOM1.7,ALWAYS ON,BEDROOM1.7,26.25,0.7,2.188E-002,8.333E-004,2.083E-003,1.000,0.606,3.600E-002,0.118,0.000
 ZoneInfiltration Airflow Stats Nominal, BEDROOM1.8,ALWAYS ON,BEDROOM1.8,26.25,0.7,2.188E-002,8.333E-004,2.083E-003,1.000,0.606,3.600E-002,0.118,0.000
 ZoneInfiltration Airflow Stats Nominal, BEDROOM1.9,ALWAYS ON,BEDROOM1.9,18.00,0.5,1.500E-002,8.333E-004,5.556E-004,1.000,0.606,3.600E-002,0.118,0.000
 ZoneInfiltration Airflow Stats Nominal, BEDROOM1.10,ALWAYS ON,BEDROOM1.10,15.00,0.4,1.250E-002,8.333E-004,8.333E-004,1.000,0.606,3.600E-002,0.118,0.000
 ZoneInfiltration Airflow Stats Nominal, BEDROOM1.11,ALWAYS ON,BEDROOM1.11,15.00,0.4,1.250E-002,8.333E-004,8.333E-004,1.000,0.606,3.600E-002,0.118,0.000
 ZoneInfiltration Airflow Stats Nominal, BEDROOM1.12,ALWAYS ON,BEDROOM1.12,18.00,0.5,1.500E-002,8.333E-004,5.556E-004,1.000,0.606,3.600E-002,0.118,0.000
 ZoneInfiltration Airflow Stats Nominal, KITCHEN2.1,ALWAYS ON,KITCHEN2.1,10.80,0.3,9.000E-003,8.333E-004,N/A,1.000,0.606,3.600E-002,0.118,0.000
 ZoneInfiltration Airflow Stats Nominal, KITCHEN2.2,ALWAYS ON,KITCHEN2.2,10.80,0.3,9.000E-003,8.333E-004,N/A,1.000,0.606,3.600E-002,0.118,0.000
 ZoneInfiltration Airflow Stats Nominal, KITCHEN2.3,ALWAYS ON,KITCHEN2.3,10.80,0.3,9.000E-003,8.333E-004,N/A,1.000,0.606,3.600E-002,0.118,0.000
 ZoneInfiltration Airflow Stats Nominal, KITCHEN2.4,ALWAYS ON,KITCHEN2.4,10.80,0.3,9.000E-003,8.333E-004,N/A,1.000,0.606,3.600E-002,0.118,0.000
 ZoneInfiltration Airflow Stats Nominal, LIVINGROOM2.1,ALWAYS ON,LIVINGROOM2.1,38.70,1.1,3.225E-002,8.333E-004,2.389E-003,1.000,0.606,3.600E-002,0.118,0.000
 ZoneInfiltration Airflow Stats Nominal, LIVINGROOM2.2,ALWAYS ON,LIVINGROOM2.2,38.70,1.1,3.225E-002,8.333E-004,2.389E-003,1.000,0.606,3.600E-002,0.118,0.000
 ZoneInfiltration Airflow Stats Nominal, LIVINGROOM2.3,ALWAYS ON,LIVINGROOM2.3,38.70,1.1,3.225E-002,8.333E-004,2.389E-003,1.000,0.606,3.600E-002,0.118,0.000
 ZoneInfiltration Airflow Stats Nominal, LIVINGROOM2.4,ALWAYS ON,LIVINGROOM2.4,38.70,1.1,3.225E-002,8.333E-004,2.389E-003,1.000,0.606,3.600E-002,0.118,0.000
 ZoneInfiltration Airflow Stats Nominal, BEDROOM2.1,ALWAYS ON,BEDROOM2.1,18.00,0.5,1.500E-002,8.333E-004,5.556E-004,1.000,0.606,3.600E-002,0.118,0.000
 ZoneInfiltration Airflow Stats Nominal, BEDROOM2.2,ALWAYS ON,BEDROOM2.2,15.00,0.4,1.250E-002,8.333E-004,8.333E-004,1.000,0.606,3.600E-002,0.118,0.000
 ZoneInfiltration Airflow Stats Nominal, BEDROOM2.3,ALWAYS ON,BEDROOM2.3,15.00,0.4,1.250E-002,8.333E-004,8.333E-004,1.000,0.606,3.600E-002,0.118,0.000
 ZoneInfiltration Airflow Stats Nominal, BEDROOM2.4,ALWAYS ON,BEDROOM2.4,18.00,0.5,1.500E-002,8.333E-004,5.556E-004,1.000,0.606,3.600E-002,0.118,0.000
 ZoneInfiltration Airflow Stats Nominal, BEDROOM2.5,ALWAYS ON,BEDROOM2.5,26.25,0.7,2.188E-002,8.333E-004,2.083E-003,1.000,0.606,3.600E-002,0.118,0.000
 ZoneInfiltration Airflow Stats Nominal, BEDROOM2.6,ALWAYS ON,BEDROOM2.6,26.25,0.7,2.188E-002,8.333E-004,2.083E-003,1.000,0.606,3.600E-002,0.118,0.000
 ZoneInfiltration Airflow Stats Nominal, BEDROOM2.7,ALWAYS ON,BEDROOM2.7,26.25,0.7,2.188E-002,8.333E-004,2.083E-003,1.000,0.606,3.600E-002,0.118,0.000
 ZoneInfiltration Airflow Stats Nominal, BEDROOM2.8,ALWAYS ON,BEDROOM2.8,26.25,0.7,2.188E-002,8.333E-004,2.083E-003,1.000,0.606,3.600E-002,0.118,0.000
 ZoneInfiltration Airflow Stats Nominal, BEDROOM2.9,ALWAYS ON,BEDROOM2.9,18.00,0.5,1.500E-002,8.333E-004,5.556E-004,1.000,0.606,3.600E-002,0.118,0.000
 ZoneInfiltration Airflow Stats Nominal, BEDROOM2.10,ALWAYS ON,BEDROOM2.10,15.00,0.4,1.250E-002,8.333E-004,8.333E-004,1.000,0.606,3.600E-002,0.118,0.000
 ZoneInfiltration Airflow Stats Nominal, BEDROOM2.11,ALWAYS ON,BEDROOM2.11,15.00,0.4,1.250E-002,8.333E-004,8.333E-004,1.000,0.606,3.600E-002,0.118,0.000
 ZoneInfiltration Airflow Stats Nominal, BEDROOM2.12,ALWAYS ON,BEDROOM2.12,18.00,0.5,1.500E-002,8.333E-004,5.556E-004,1.000,0.606,3.600E-002,0.118,0.000
 ZoneInfiltration Airflow Stats Nominal, KITCHEN3.1,ALWAYS ON,KITCHEN3.1,10.80,0.3,9.000E-003,8.333E-004,8.333E-004,1.000,0.606,3.600E-002,0.118,0.000
 ZoneInfiltration Airflow Stats Nominal, KITCHEN3.2,ALWAYS ON,KITCHEN3.2,10.80,0.3,9.000E-003,8.333E-004,8.333E-004,1.000,0.606,3.600E-002,0.118,0.000
 ZoneInfiltration Airflow Stats Nominal, KITCHEN3.3,ALWAYS ON,KITCHEN3.3,10.80,0.3,9.000E-003,8.333E-004,8.333E-004,1.000,0.606,3.600E-002,0.118,0.000
 ZoneInfiltration Airflow Stats Nominal, KITCHEN3.4,ALWAYS ON,KITCHEN3.4,10.80,0.3,9.000E-003,8.333E-004,8.333E-004,1.000,0.606,3.600E-002,0.118,0.000
 ZoneInfiltration Airflow Stats Nominal, LIVINGROOM3.1,ALWAYS ON,LIVINGROOM3.1,38.70,1.1,3.225E-002,8.333E-004,6.178E-004,1.000,0.606,3.600E-002,0.118,0.000
 ZoneInfiltration Airflow Stats Nominal, LIVINGROOM3.2,ALWAYS ON,LIVINGROOM3.2,38.70,1.1,3.225E-002,8.333E-004,6.178E-004,1.000,0.606,3.600E-002,0.118,0.000
 ZoneInfiltration Airflow Stats Nominal, LIVINGROOM3.3,ALWAYS ON,LIVINGROOM3.3,38.70,1.1,3.225E-002,8.333E-004,6.178E-004,1.000,0.606,3.600E-002,0.118,0.000
 ZoneInfiltration Airflow Stats Nominal, LIVINGROOM3.4,ALWAYS ON,LIVINGROOM3.4,38.70,1.1,3.225E-002,8.333E-004,6.178E-004,1.000,0.606,3.600E-002,0.118,0.000
 ZoneInfiltration Airflow Stats Nominal, BEDROOM3.1,ALWAYS ON,BEDROOM3.1,18.00,0.5,1.500E-002,8.333E-004,3.333E-004,1.000,0.606,3.600E-002,0.118,0.000
 ZoneInfiltration Airflow Stats Nominal, BEDROOM3.2,ALWAYS ON,BEDROOM3.2,15.00,0.4,1.250E-002,8.333E-004,4.167E-004,1.000,0.606,3.600E-002,0.118,0.000
 ZoneInfiltration Airflow Stats Nominal, BEDROOM3.3,ALWAYS ON,BEDROOM3.3,15.00,0.4,1.250E-002,8.333E-004,4.167E-004,1.000,0.606,3.600E-002,0.118,0.000
 ZoneInfiltration Airflow Stats Nominal, BEDROOM3.4,ALWAYS ON,BEDROOM3.4,18.00,0.5,1.500E-002,8.333E-004,3.333E-004,1.000,0.606,3.600E-002,0.118,0.000
 ZoneInfiltration Airflow Stats Nominal, BEDROOM3.5,ALWAYS ON,BEDROOM3.5,26.25,0.7,2.188E-002,8.333E-004,5.952E-004,1.000,0.606,3.600E-002,0.118,0.000
 ZoneInfiltration Airflow Stats Nominal, BEDROOM3.6,ALWAYS ON,BEDROOM3.6,26.25,0.7,2.188E-002,8.333E-004,5.952E-004,1.000,0.606,3.600E-002,0.118,0.000
 ZoneInfiltration Airflow Stats Nominal, BEDROOM3.7,ALWAYS ON,BEDROOM3.7,26.25,0.7,2.188E-002,8.333E-004,5.952E-004,1.000,0.606,3.600E-002,0.118,0.000
 ZoneInfiltration Airflow Stats Nominal, BEDROOM3.8,ALWAYS ON,BEDROOM3.8,26.25,0.7,2.188E-002,8.333E-004,5.952E-004,1.000,0.606,3.600E-002,0.118,0.000
 ZoneInfiltration Airflow Stats Nominal, BEDROOM3.9,ALWAYS ON,BEDROOM3.9,18.00,0.5,1.500E-002,8.333E-004,3.333E-004,1.000,0.606,3.600E-002,0.118,0.000
 ZoneInfiltration Airflow Stats Nominal, BEDROOM3.10,ALWAYS ON,BEDROOM3.10,15.00,0.4,1.250E-002,8.333E-004,4.167E-004,1.000,0.606,3.600E-002,0.118,0.000
 ZoneInfiltration Airflow Stats Nominal, BEDROOM3.11,ALWAYS ON,BEDROOM3.11,15.00,0.4,1.250E-002,8.333E-004,4.167E-004,1.000,0.606,3.600E-002,0.118,0.000
 ZoneInfiltration Airflow Stats Nominal, BEDROOM3.12,ALWAYS ON,BEDROOM3.12,18.00,0.5,1.500E-002,8.333E-004,3.333E-004,1.000,0.606,3.600E-002,0.118,0.000
! <ZoneVentilation Airflow Stats Nominal>,Name,Schedule Name,Zone Name, Zone Floor Area {m2}, # Zone Occupants,Design Volume Flow Rate {m3/s},Volume Flow Rate/Floor Area {m3/s/m2},Volume Flow Rate/person Area {m3/s/person},ACH - Air Changes per Hour,Fan Type {Exhaust;Intake;Natural},Fan Pressure Rise {Pa},Fan Efficiency {},Equation A - Constant Term Coefficient {},Equation B - Temperature Term Coefficient {1/C},Equation C - Velocity Term Coefficient {s/m}, Equation D - Velocity Squared Term Coefficient {s2/m2},Minimum Indoor Temperature{C}/Schedule,Maximum Indoor Temperature{C}/Schedule,Delta Temperature{C}/Schedule,Minimum Outdoor Temperature{C}/Schedule,Maximum Outdoor Temperature{C}/Schedule,Maximum WindSpeed{m/s}
 ZoneVentilation Airflow Stats Nominal, JICHUKITCHEN1.1,JICHUTONGFENGQITA,KITCHEN1.1,10.80,0.3,3.600E-002,3.333E-003,0.119,4.000,Natural,0.000,1.0,0.606,3.600E-002,0.118,0.000,-100.00,100.00,-100.00,-100.00,100.00,40.00
 ZoneVentilation Airflow Stats Nominal, JICHUKITCHEN1.2,JICHUTONGFENGQITA,KITCHEN1.2,10.80,0.3,3.600E-002,3.333E-003,0.119,4.000,Natural,0.000,1.0,0.606,3.600E-002,0.118,0.000,-100.00,100.00,-100.00,-100.00,100.00,40.00
 ZoneVentilation Airflow Stats Nominal, JICHUKITCHEN1.3,JICHUTONGFENGQITA,KITCHEN1.3,10.80,0.3,3.600E-002,3.333E-003,0.119,4.000,Natural,0.000,1.0,0.606,3.600E-002,0.118,0.000,-100.00,100.00,-100.00,-100.00,100.00,40.00
 ZoneVentilation Airflow Stats Nominal, JICHUKITCHEN1.4,JICHUTONGFENGQITA,KITCHEN1.4,10.80,0.3,3.600E-002,3.333E-003,0.119,4.000,Natural,0.000,1.0,0.606,3.600E-002,0.118,0.000,-100.00,100.00,-100.00,-100.00,100.00,40.00
 ZoneVentilation Airflow Stats Nominal, JICHULIVINGROOM1.1,JICHUTONGFENGKETING,LIVINGROOM1.1,38.70,1.1,0.129,3.333E-003,0.119,4.000,Natural,0.000,1.0,0.606,3.600E-002,0.118,0.000,-100.00,100.00,-100.00,-100.00,100.00,40.00
 ZoneVentilation Airflow Stats Nominal, JICHULIVINGROOM1.2,JICHUTONGFENGKETING,LIVINGROOM1.2,38.70,1.1,0.129,3.333E-003,0.119,4.000,Natural,0.000,1.0,0.606,3.600E-002,0.118,0.000,-100.00,100.00,-100.00,-100.00,100.00,40.00
 ZoneVentilation Airflow Stats Nominal, JICHULIVINGROOM1.3,JICHUTONGFENGKETING,LIVINGROOM1.3,38.70,1.1,0.129,3.333E-003,0.119,4.000,Natural,0.000,1.0,0.606,3.600E-002,0.118,0.000,-100.00,100.00,-100.00,-100.00,100.00,40.00
 ZoneVentilation Airflow Stats Nominal, JICHULIVINGROOM1.4,JICHUTONGFENGKETING,LIVINGROOM1.4,38.70,1.1,0.129,3.333E-003,0.119,4.000,Natural,0.000,1.0,0.606,3.600E-002,0.118,0.000,-100.00,100.00,-100.00,-100.00,100.00,40.00
 ZoneVentilation Airflow Stats Nominal, JICHUBEDROOM1.1,JICHUTONGFENGBEDROOM,BEDROOM1.1,18.00,0.5,6.000E-002,3.333E-003,0.119,4.000,Natural,0.000,1.0,0.606,3.600E-002,0.118,0.000,-100.00,100.00,-100.00,-100.00,100.00,40.00
 ZoneVentilation Airflow Stats Nominal, JICHUBEDROOM1.2,JICHUTONGFENGBEDROOM,BEDROOM1.2,15.00,0.4,5.000E-002,3.333E-003,0.119,4.000,Natural,0.000,1.0,0.606,3.600E-002,0.118,0.000,-100.00,100.00,-100.00,-100.00,100.00,40.00
 ZoneVentilation Airflow Stats Nominal, JICHUBEDROOM1.3,JICHUTONGFENGBEDROOM,BEDROOM1.3,15.00,0.4,5.000E-002,3.333E-003,0.119,4.000,Natural,0.000,1.0,0.606,3.600E-002,0.118,0.000,-100.00,100.00,-100.00,-100.00,100.00,40.00
 ZoneVentilation Airflow Stats Nominal, JICHUBEDROOM1.4,JICHUTONGFENGBEDROOM,BEDROOM1.4,18.00,0.5,6.000E-002,3.333E-003,0.119,4.000,Natural,0.000,1.0,0.606,3.600E-002,0.118,0.000,-100.00,100.00,-100.00,-100.00,100.00,40.00
 ZoneVentilation Airflow Stats Nominal, JICHUBEDROOM1.5,JICHUTONGFENGBEDROOM,BEDROOM1.5,26.25,0.7,8.750E-002,3.333E-003,0.119,4.000,Natural,0.000,1.0,0.606,3.600E-002,0.118,0.000,-100.00,100.00,-100.00,-100.00,100.00,40.00
 ZoneVentilation Airflow Stats Nominal, JICHUBEDROOM1.6,JICHUTONGFENGBEDROOM,BEDROOM1.6,26.25,0.7,8.750E-002,3.333E-003,0.119,4.000,Natural,0.000,1.0,0.606,3.600E-002,0.118,0.000,-100.00,100.00,-100.00,-100.00,100.00,40.00
 ZoneVentilation Airflow Stats Nominal, JICHUBEDROOM1.7,JICHUTONGFENGBEDROOM,BEDROOM1.7,26.25,0.7,8.750E-002,3.333E-003,0.119,4.000,Natural,0.000,1.0,0.606,3.600E-002,0.118,0.000,-100.00,100.00,-100.00,-100.00,100.00,40.00
 ZoneVentilation Airflow Stats Nominal, JICHUBEDROOM1.8,JICHUTONGFENGBEDROOM,BEDROOM1.8,26.25,0.7,8.750E-002,3.333E-003,0.119,4.000,Natural,0.000,1.0,0.606,3.600E-002,0.118,0.000,-100.00,100.00,-100.00,-100.00,100.00,40.00
 ZoneVentilation Airflow Stats Nominal, JICHUBEDROOM1.9,JICHUTONGFENGBEDROOM,BEDROOM1.9,18.00,0.5,6.000E-002,3.333E-003,0.119,4.000,Natural,0.000,1.0,0.606,3.600E-002,0.118,0.000,-100.00,100.00,-100.00,-100.00,100.00,40.00
 ZoneVentilation Airflow Stats Nominal, JICHUBEDROOM1.10,JICHUTONGFENGBEDROOM,BEDROOM1.10,15.00,0.4,5.000E-002,3.333E-003,0.119,4.000,Natural,0.000,1.0,0.606,3.600E-002,0.118,0.000,-100.00,100.00,-100.00,-100.00,100.00,40.00
 ZoneVentilation Airflow Stats Nominal, JICHUBEDROOM1.11,JICHUTONGFENGBEDROOM,BEDROOM1.11,15.00,0.4,5.000E-002,3.333E-003,0.119,4.000,Natural,0.000,1.0,0.606,3.600E-002,0.118,0.000,-100.00,100.00,-100.00,-100.00,100.00,40.00
 ZoneVentilation Airflow Stats Nominal, JICHUBEDROOM1.12,JICHUTONGFENGBEDROOM,BEDROOM1.12,18.00,0.5,6.000E-002,3.333E-003,0.119,4.000,Natural,0.000,1.0,0.606,3.600E-002,0.118,0.000,-100.00,100.00,-100.00,-100.00,100.00,40.00
 ZoneVentilation Airflow Stats Nominal, JICHUKITCHEN2.1,JICHUTONGFENGQITA,KITCHEN2.1,10.80,0.3,3.600E-002,3.333E-003,0.119,4.000,Natural,0.000,1.0,0.606,3.600E-002,0.118,0.000,-100.00,100.00,-100.00,-100.00,100.00,40.00
 ZoneVentilation Airflow Stats Nominal, JICHUKITCHEN2.2,JICHUTONGFENGQITA,KITCHEN2.2,10.80,0.3,3.600E-002,3.333E-003,0.119,4.000,Natural,0.000,1.0,0.606,3.600E-002,0.118,0.000,-100.00,100.00,-100.00,-100.00,100.00,40.00
 ZoneVentilation Airflow Stats Nominal, JICHUKITCHEN2.3,JICHUTONGFENGQITA,KITCHEN2.3,10.80,0.3,3.600E-002,3.333E-003,0.119,4.000,Natural,0.000,1.0,0.606,3.600E-002,0.118,0.000,-100.00,100.00,-100.00,-100.00,100.00,40.00
 ZoneVentilation Airflow Stats Nominal, JICHUKITCHEN2.4,JICHUTONGFENGQITA,KITCHEN2.4,10.80,0.3,3.600E-002,3.333E-003,0.119,4.000,Natural,0.000,1.0,0.606,3.600E-002,0.118,0.000,-100.00,100.00,-100.00,-100.00,100.00,40.00
 ZoneVentilation Airflow Stats Nominal, JICHULIVINGROOM2.1,JICHUTONGFENGKETING,LIVINGROOM2.1,38.70,1.1,0.129,3.333E-003,0.119,4.000,Natural,0.000,1.0,0.606,3.600E-002,0.118,0.000,-100.00,100.00,-100.00,-100.00,100.00,40.00
 ZoneVentilation Airflow Stats Nominal, JICHULIVINGROOM2.2,JICHUTONGFENGKETING,LIVINGROOM2.2,38.70,1.1,0.129,3.333E-003,0.119,4.000,Natural,0.000,1.0,0.606,3.600E-002,0.118,0.000,-100.00,100.00,-100.00,-100.00,100.00,40.00
 ZoneVentilation Airflow Stats Nominal, JICHULIVINGROOM2.3,JICHUTONGFENGKETING,LIVINGROOM2.3,38.70,1.1,0.129,3.333E-003,0.119,4.000,Natural,0.000,1.0,0.606,3.600E-002,0.118,0.000,-100.00,100.00,-100.00,-100.00,100.00,40.00
 ZoneVentilation Airflow Stats Nominal, JICHULIVINGROOM2.4,JICHUTONGFENGKETING,LIVINGROOM2.4,38.70,1.1,0.129,3.333E-003,0.119,4.000,Natural,0.000,1.0,0.606,3.600E-002,0.118,0.000,-100.00,100.00,-100.00,-100.00,100.00,40.00
 ZoneVentilation Airflow Stats Nominal, JICHUBEDROOM2.1,JICHUTONGFENGBEDROOM,BEDROOM2.1,18.00,0.5,6.000E-002,3.333E-003,0.119,4.000,Natural,0.000,1.0,0.606,3.600E-002,0.118,0.000,-100.00,100.00,-100.00,-100.00,100.00,40.00
 ZoneVentilation Airflow Stats Nominal, JICHUBEDROOM2.2,JICHUTONGFENGBEDROOM,BEDROOM2.2,15.00,0.4,5.000E-002,3.333E-003,0.119,4.000,Natural,0.000,1.0,0.606,3.600E-002,0.118,0.000,-100.00,100.00,-100.00,-100.00,100.00,40.00
 ZoneVentilation Airflow Stats Nominal, JICHUBEDROOM2.3,JICHUTONGFENGBEDROOM,BEDROOM2.3,15.00,0.4,5.000E-002,3.333E-003,0.119,4.000,Natural,0.000,1.0,0.606,3.600E-002,0.118,0.000,-100.00,100.00,-100.00,-100.00,100.00,40.00
 ZoneVentilation Airflow Stats Nominal, JICHUBEDROOM2.4,JICHUTONGFENGBEDROOM,BEDROOM2.4,18.00,0.5,6.000E-002,3.333E-003,0.119,4.000,Natural,0.000,1.0,0.606,3.600E-002,0.118,0.000,-100.00,100.00,-100.00,-100.00,100.00,40.00
 ZoneVentilation Airflow Stats Nominal, JICHUBEDROOM2.5,JICHUTONGFENGBEDROOM,BEDROOM2.5,26.25,0.7,8.750E-002,3.333E-003,0.119,4.000,Natural,0.000,1.0,0.606,3.600E-002,0.118,0.000,-100.00,100.00,-100.00,-100.00,100.00,40.00
 ZoneVentilation Airflow Stats Nominal, JICHUBEDROOM2.6,JICHUTONGFENGBEDROOM,BEDROOM2.6,26.25,0.7,8.750E-002,3.333E-003,0.119,4.000,Natural,0.000,1.0,0.606,3.600E-002,0.118,0.000,-100.00,100.00,-100.00,-100.00,100.00,40.00
 ZoneVentilation Airflow Stats Nominal, JICHUBEDROOM2.7,JICHUTONGFENGBEDROOM,BEDROOM2.7,26.25,0.7,8.750E-002,3.333E-003,0.119,4.000,Natural,0.000,1.0,0.606,3.600E-002,0.118,0.000,-100.00,100.00,-100.00,-100.00,100.00,40.00
 ZoneVentilation Airflow Stats Nominal, JICHUBEDROOM2.8,JICHUTONGFENGBEDROOM,BEDROOM2.8,26.25,0.7,8.750E-002,3.333E-003,0.119,4.000,Natural,0.000,1.0,0.606,3.600E-002,0.118,0.000,-100.00,100.00,-100.00,-100.00,100.00,40.00
 ZoneVentilation Airflow Stats Nominal, JICHUBEDROOM2.9,JICHUTONGFENGBEDROOM,BEDROOM2.9,18.00,0.5,6.000E-002,3.333E-003,0.119,4.000,Natural,0.000,1.0,0.606,3.600E-002,0.118,0.000,-100.00,100.00,-100.00,-100.00,100.00,40.00
 ZoneVentilation Airflow Stats Nominal, JICHUBEDROOM2.10,JICHUTONGFENGBEDROOM,BEDROOM2.10,15.00,0.4,5.000E-002,3.333E-003,0.119,4.000,Natural,0.000,1.0,0.606,3.600E-002,0.118,0.000,-100.00,100.00,-100.00,-100.00,100.00,40.00
 ZoneVentilation Airflow Stats Nominal, JICHUBEDROOM2.11,JICHUTONGFENGBEDROOM,BEDROOM2.11,15.00,0.4,5.000E-002,3.333E-003,0.119,4.000,Natural,0.000,1.0,0.606,3.600E-002,0.118,0.000,-100.00,100.00,-100.00,-100.00,100.00,40.00
 ZoneVentilation Airflow Stats Nominal, JICHUBEDROOM2.12,JICHUTONGFENGBEDROOM,BEDROOM2.12,18.00,0.5,6.000E-002,3.333E-003,0.119,4.000,Natural,0.000,1.0,0.606,3.600E-002,0.118,0.000,-100.00,100.00,-100.00,-100.00,100.00,40.00
 ZoneVentilation Airflow Stats Nominal, JICHUKITCHEN3.1,JICHUTONGFENGQITA,KITCHEN3.1,10.80,0.3,3.600E-002,3.333E-003,0.119,4.000,Natural,0.000,1.0,0.606,3.600E-002,0.118,0.000,-100.00,100.00,-100.00,-100.00,100.00,40.00
 ZoneVentilation Airflow Stats Nominal, JICHUKITCHEN3.2,JICHUTONGFENGQITA,KITCHEN3.2,10.80,0.3,3.600E-002,3.333E-003,0.119,4.000,Natural,0.000,1.0,0.606,3.600E-002,0.118,0.000,-100.00,100.00,-100.00,-100.00,100.00,40.00
 ZoneVentilation Airflow Stats Nominal, JICHUKITCHEN3.3,JICHUTONGFENGQITA,KITCHEN3.3,10.80,0.3,3.600E-002,3.333E-003,0.119,4.000,Natural,0.000,1.0,0.606,3.600E-002,0.118,0.000,-100.00,100.00,-100.00,-100.00,100.00,40.00
 ZoneVentilation Airflow Stats Nominal, JICHUKITCHEN3.4,JICHUTONGFENGQITA,KITCHEN3.4,10.80,0.3,3.600E-002,3.333E-003,0.119,4.000,Natural,0.000,1.0,0.606,3.600E-002,0.118,0.000,-100.00,100.00,-100.00,-100.00,100.00,40.00
 ZoneVentilation Airflow Stats Nominal, JICHULIVINGROOM3.1,JICHUTONGFENGKETING,LIVINGROOM3.1,38.70,1.1,0.129,3.333E-003,0.119,4.000,Natural,0.000,1.0,0.606,3.600E-002,0.118,0.000,-100.00,100.00,-100.00,-100.00,100.00,40.00
 ZoneVentilation Airflow Stats Nominal, JICHULIVINGROOM3.2,JICHUTONGFENGKETING,LIVINGROOM3.2,38.70,1.1,0.129,3.333E-003,0.119,4.000,Natural,0.000,1.0,0.606,3.600E-002,0.118,0.000,-100.00,100.00,-100.00,-100.00,100.00,40.00
 ZoneVentilation Airflow Stats Nominal, JICHULIVINGROOM3.3,JICHUTONGFENGKETING,LIVINGROOM3.3,38.70,1.1,0.129,3.333E-003,0.119,4.000,Natural,0.000,1.0,0.606,3.600E-002,0.118,0.000,-100.00,100.00,-100.00,-100.00,100.00,40.00
 ZoneVentilation Airflow Stats Nominal, JICHULIVINGROOM3.4,JICHUTONGFENGKETING,LIVINGROOM3.4,38.70,1.1,0.129,3.333E-003,0.119,4.000,Natural,0.000,1.0,0.606,3.600E-002,0.118,0.000,-100.00,100.00,-100.00,-100.00,100.00,40.00
 ZoneVentilation Airflow Stats Nominal, JICHUBEDROOM3.1,JICHUTONGFENGBEDROOM,BEDROOM3.1,18.00,0.5,6.000E-002,3.333E-003,0.119,4.000,Natural,0.000,1.0,0.606,3.600E-002,0.118,0.000,-100.00,100.00,-100.00,-100.00,100.00,40.00
 ZoneVentilation Airflow Stats Nominal, JICHUBEDROOM3.2,JICHUTONGFENGBEDROOM,BEDROOM3.2,15.00,0.4,5.000E-002,3.333E-003,0.119,4.000,Natural,0.000,1.0,0.606,3.600E-002,0.118,0.000,-100.00,100.00,-100.00,-100.00,100.00,40.00
 ZoneVentilation Airflow Stats Nominal, JICHUBEDROOM3.3,JICHUTONGFENGBEDROOM,BEDROOM3.3,15.00,0.4,5.000E-002,3.333E-003,0.119,4.000,Natural,0.000,1.0,0.606,3.600E-002,0.118,0.000,-100.00,100.00,-100.00,-100.00,100.00,40.00
[...]
 ZoneVentilation Airflow Stats Nominal, LIVINGROOM2.1,TONGFENGCISHUBIANLIANG,LIVINGROOM2.1,38.70,1.1,0.853,2.204E-002,0.785,26.451,Natural,0.000,1.0,0.606,3.600E-002,0.118,0.000,-100.00,100.00,-100.00,15.37,28.78,40.00
 ZoneVentilation Airflow Stats Nominal, LIVINGROOM2.2,TONGFENGCISHUBIANLIANG,LIVINGROOM2.2,38.70,1.1,0.853,2.204E-002,0.785,26.451,Natural,0.000,1.0,0.606,3.600E-002,0.118,0.000,-100.00,100.00,-100.00,15.37,28.78,40.00
 ZoneVentilation Airflow Stats Nominal, LIVINGROOM2.3,TONGFENGCISHUBIANLIANG,LIVINGROOM2.3,38.70,1.1,0.853,2.204E-002,0.785,26.451,Natural,0.000,1.0,0.606,3.600E-002,0.118,0.000,-100.00,100.00,-100.00,15.37,28.78,40.00
 ZoneVentilation Airflow Stats Nominal, LIVINGROOM2.4,TONGFENGCISHUBIANLIANG,LIVINGROOM2.4,38.70,1.1,0.853,2.204E-002,0.785,26.451,Natural,0.000,1.0,0.606,3.600E-002,0.118,0.000,-100.00,100.00,-100.00,15.37,28.78,40.00
 ZoneVentilation Airflow Stats Nominal, BEDROOM2.1,TONGFENGCISHUBIANLIANG,BEDROOM2.1,18.00,0.5,0.397,2.204E-002,0.785,26.451,Natural,0.000,1.0,0.606,3.600E-002,0.118,0.000,-100.00,100.00,-100.00,15.37,28.78,40.00
 ZoneVentilation Airflow Stats Nominal, BEDROOM2.2,TONGFENGCISHUBIANLIANG,BEDROOM2.2,15.00,0.4,0.331,2.204E-002,0.785,26.451,Natural,0.000,1.0,0.606,3.600E-002,0.118,0.000,-100.00,100.00,-100.00,15.37,28.78,40.00
 ZoneVentilation Airflow Stats Nominal, BEDROOM2.3,TONGFENGCISHUBIANLIANG,BEDROOM2.3,15.00,0.4,0.331,2.204E-002,0.785,26.451,Natural,0.000,1.0,0.606,3.600E-002,0.118,0.000,-100.00,100.00,-100.00,15.37,28.78,40.00
 ZoneVentilation Airflow Stats Nominal, BEDROOM2.4,TONGFENGCISHUBIANLIANG,BEDROOM2.4,18.00,0.5,0.397,2.204E-002,0.785,26.451,Natural,0.000,1.0,0.606,3.600E-002,0.118,0.000,-100.00,100.00,-100.00,15.37,28.78,40.00
 ZoneVentilation Airflow Stats Nominal, BEDROOM2.5,TONGFENGCISHUBIANLIANG,BEDROOM2.5,26.25,0.7,0.579,2.204E-002,0.785,26.451,Natural,0.000,1.0,0.606,3.600E-002,0.118,0.000,-100.00,100.00,-100.00,15.37,28.78,40.00
 ZoneVentilation Airflow Stats Nominal, BEDROOM2.6,TONGFENGCISHUBIANLIANG,BEDROOM2.6,26.25,0.7,0.579,2.204E-002,0.785,26.451,Natural,0.000,1.0,0.606,3.600E-002,0.118,0.000,-100.00,100.00,-100.00,15.37,28.78,40.00
 ZoneVentilation Airflow Stats Nominal, BEDROOM2.7,TONGFENGCISHUBIANLIANG,BEDROOM2.7,26.25,0.7,0.579,2.204E-002,0.785,26.451,Natural,0.000,1.0,0.606,3.600E-002,0.118,0.000,-100.00,100.00,-100.00,15.37,28.78,40.00
 ZoneVentilation Airflow Stats Nominal, BEDROOM2.8,TONGFENGCISHUBIANLIANG,BEDROOM2.8,26.25,0.7,0.579,2.204E-002,0.785,26.451,Natural,0.000,1.0,0.606,3.600E-002,0.118,0.000,-100.00,100.00,-100.00,15.37,28.78,40.00
 ZoneVentilation Airflow Stats Nominal, BEDROOM2.9,TONGFENGCISHUBIANLIANG,BEDROOM2.9,18.00,0.5,0.397,2.204E-002,0.785,26.451,Natural,0.000,1.0,0.606,3.600E-002,0.118,0.000,-100.00,100.00,-100.00,15.37,28.78,40.00
 ZoneVentilation Airflow Stats Nominal, BEDROOM2.10,TONGFENGCISHUBIANLIANG,BEDROOM2.10,15.00,0.4,0.331,2.204E-002,0.785,26.451,Natural,0.000,1.0,0.606,3.600E-002,0.118,0.000,-100.00,100.00,-100.00,15.37,28.78,40.00
 ZoneVentilation Airflow Stats Nominal, BEDROOM2.11,TONGFENGCISHUBIANLIANG,BEDROOM2.11,15.00,0.4,0.331,2.204E-002,0.785,26.451,Natural,0.000,1.0,0.606,3.600E-002,0.118,0.000,-100.00,100.00,-100.00,15.37,28.78,40.00
 ZoneVentilation Airflow Stats Nominal, BEDROOM2.12,TONGFENGCISHUBIANLIANG,BEDROOM2.12,18.00,0.5,0.397,2.204E-002,0.785,26.451,Natural,0.000,1.0,0.606,3.600E-002,0.118,0.000,-100.00,100.00,-100.00,15.37,28.78,40.00
 ZoneVentilation Airflow Stats Nominal, KITCHEN3.1,TONGFENGCISHUBIANLIANG,KITCHEN3.1,10.80,0.3,0.238,2.204E-002,0.785,26.451,Natural,0.000,1.0,0.606,3.600E-002,0.118,0.000,-100.00,100.00,-100.00,15.37,28.78,40.00
 ZoneVentilation Airflow Stats Nominal, KITCHEN3.2,TONGFENGCISHUBIANLIANG,KITCHEN3.2,10.80,0.3,0.238,2.204E-002,0.785,26.451,Natural,0.000,1.0,0.606,3.600E-002,0.118,0.000,-100.00,100.00,-100.00,15.37,28.78,40.00
 ZoneVentilation Airflow Stats Nominal, KITCHEN3.3,TONGFENGCISHUBIANLIANG,KITCHEN3.3,10.80,0.3,0.238,2.204E-002,0.785,26.451,Natural,0.000,1.0,0.606,3.600E-002,0.118,0.000,-100.00,100.00,-100.00,15.37,28.78,40.00
 ZoneVentilation Airflow Stats Nominal, KITCHEN3.4,TONGFENGCISHUBIANLIANG,KITCHEN3.4,10.80,0.3,0.238,2.204E-002,0.785,26.451,Natural,0.000,1.0,0.606,3.600E-002,0.118,0.000,-100.00,100.00,-100.00,15.37,28.78,40.00
 ZoneVentilation Airflow Stats Nominal, LIVINGROOM3.1,TONGFENGCISHUBIANLIANG,LIVINGROOM3.1,38.70,1.1,0.853,2.204E-002,0.785,26.451,Natural,0.000,1.0,0.606,3.600E-002,0.118,0.000,-100.00,100.00,-100.00,15.37,28.78,40.00
 ZoneVentilation Airflow Stats Nominal, LIVINGROOM3.2,TONGFENGCISHUBIANLIANG,LIVINGROOM3.2,38.70,1.1,0.853,2.204E-002,0.785,26.451,Natural,0.000,1.0,0.606,3.600E-002,0.118,0.000,-100.00,100.00,-100.00,15.37,28.78,40.00
 ZoneVentilation Airflow Stats Nominal, LIVINGROOM3.3,TONGFENGCISHUBIANLIANG,LIVINGROOM3.3,38.70,1.1,0.853,2.204E-002,0.785,26.451,Natural,0.000,1.0,0.606,3.600E-002,0.118,0.000,-100.00,100.00,-100.00,15.37,28.78,40.00
 ZoneVentilation Airflow Stats Nominal, LIVINGROOM3.4,TONGFENGCISHUBIANLIANG,LIVINGROOM3.4,38.70,1.1,0.853,2.204E-002,0.785,26.451,Natural,0.000,1.0,0.606,3.600E-002,0.118,0.000,-100.00,100.00,-100.00,15.37,28.78,40.00
 ZoneVentilation Airflow Stats Nominal, BEDROOM3.1,TONGFENGCISHUBIANLIANG,BEDROOM3.1,18.00,0.5,0.397,2.204E-002,0.785,26.451,Natural,0.000,1.0,0.606,3.600E-002,0.118,0.000,-100.00,100.00,-100.00,15.37,28.78,40.00
 ZoneVentilation Airflow Stats Nominal, BEDROOM3.2,TONGFENGCISHUBIANLIANG,BEDROOM3.2,15.00,0.4,0.331,2.204E-002,0.785,26.451,Natural,0.000,1.0,0.606,3.600E-002,0.118,0.000,-100.00,100.00,-100.00,15.37,28.78,40.00
 ZoneVentilation Airflow Stats Nominal, BEDROOM3.3,TONGFENGCISHUBIANLIANG,BEDROOM3.3,15.00,0.4,0.331,2.204E-002,0.785,26.451,Natural,0.000,1.0,0.606,3.600E-002,0.118,0.000,-100.00,100.00,-100.00,15.37,28.78,40.00
 ZoneVentilation Airflow Stats Nominal, BEDROOM3.4,TONGFENGCISHUBIANLIANG,BEDROOM3.4,18.00,0.5,0.397,2.204E-002,0.785,26.451,Natural,0.000,1.0,0.606,3.600E-002,0.118,0.000,-100.00,100.00,-100.00,15.37,28.78,40.00
 ZoneVentilation Airflow Stats Nominal, BEDROOM3.5,TONGFENGCISHUBIANLIANG,BEDROOM3.5,26.25,0.7,0.579,2.204E-002,0.785,26.451,Natural,0.000,1.0,0.606,3.600E-002,0.118,0.000,-100.00,100.00,-100.00,15.37,28.78,40.00
 ZoneVentilation Airflow Stats Nominal, BEDROOM3.6,TONGFENGCISHUBIANLIANG,BEDROOM3.6,26.25,0.7,0.579,2.204E-002,0.785,26.451,Natural,0.000,1.0,0.606,3.600E-002,0.118,0.000,-100.00,100.00,-100.00,15.37,28.78,40.00
 ZoneVentilation Airflow Stats Nominal, BEDROOM3.7,TONGFENGCISHUBIANLIANG,BEDROOM3.7,26.25,0.7,0.579,2.204E-002,0.785,26.451,Natural,0.000,1.0,0.606,3.600E-002,0.118,0.000,-100.00,100.00,-100.00,15.37,28.78,40.00
 ZoneVentilation Airflow Stats Nominal, BEDROOM3.8,TONGFENGCISHUBIANLIANG,BEDROOM3.8,26.25,0.7,0.579,2.204E-002,0.785,26.451,Natural,0.000,1.0,0.606,3.600E-002,0.118,0.000,-100.00,100.00,-100.00,15.37,28.78,40.00
 ZoneVentilation Airflow Stats Nominal, BEDROOM3.9,TONGFENGCISHUBIANLIANG,BEDROOM3.9,18.00,0.5,0.397,2.204E-002,0.785,26.451,Natural,0.000,1.0,0.606,3.600E-002,0.118,0.000,-100.00,100.00,-100.00,15.37,28.78,40.00
 ZoneVentilation Airflow Stats Nominal, BEDROOM3.10,TONGFENGCISHUBIANLIANG,BEDROOM3.10,15.00,0.4,0.331,2.204E-002,0.785,26.451,Natural,0.000,1.0,0.606,3.600E-002,0.118,0.000,-100.00,100.00,-100.00,15.37,28.78,40.00
 ZoneVentilation Airflow Stats Nominal, BEDROOM3.11,TONGFENGCISHUBIANLIANG,BEDROOM3.11,15.00,0.4,0.331,2.204E-002,0.785,26.451,Natural,0.000,1.0,0.606,3.600E-002,0.118,0.000,-100.00,100.00,-100.00,15.37,28.78,40.00
 ZoneVentilation Airflow Stats Nominal, BEDROOM3.12,TONGFENGCISHUBIANLIANG,BEDROOM3.12,18.00,0.5,0.397,2.204E-002,0.785,26.451,Natural,0.000,1.0,0.606,3.600E-002,0.118,0.000,-100.00,100.00,-100.00,15.37,28.78,40.00
! <AirFlow Model>, Simple
 AirFlow Model, Simple
! <RoomAir Model>, Zone Name, Mixing/Mundt/UCSDDV/UCSDCV/UCSDUFI/UCSDUFE/User Defined
RoomAir Model,KITCHEN1.1,Mixing/Well-Stirred
RoomAir Model,BEDROOM1.4,Mixing/Well-Stirred
RoomAir Model,KITCHEN1.2,Mixing/Well-Stirred
RoomAir Model,LIVINGROOM1.2,Mixing/Well-Stirred
RoomAir Model,BEDROOM1.7,Mixing/Well-Stirred
RoomAir Model,LIVINGROOM1.3,Mixing/Well-Stirred
RoomAir Model,BEDROOM1.9,Mixing/Well-Stirred
RoomAir Model,BEDROOM1.10,Mixing/Well-Stirred
RoomAir Model,BEDROOM1.11,Mixing/Well-Stirred
RoomAir Model,BEDROOM1.12,Mixing/Well-Stirred
RoomAir Model,STAIRCASE1.1,Mixing/Well-Stirred
RoomAir Model,KITCHEN1.3,Mixing/Well-Stirred
RoomAir Model,KITCHEN1.4,Mixing/Well-Stirred
RoomAir Model,LIVINGROOM1.4,Mixing/Well-Stirred
RoomAir Model,BEDROOM1.6,Mixing/Well-Stirred
RoomAir Model,BEDROOM1.8,Mixing/Well-Stirred
RoomAir Model,BEDROOM1.3,Mixing/Well-Stirred
RoomAir Model,BEDROOM1.2,Mixing/Well-Stirred
RoomAir Model,BEDROOM1.1,Mixing/Well-Stirred
RoomAir Model,LIVINGROOM1.1,Mixing/Well-Stirred
RoomAir Model,BEDROOM1.5,Mixing/Well-Stirred
RoomAir Model,LIVINGROOM2.4,Mixing/Well-Stirred
RoomAir Model,BEDROOM2.5,Mixing/Well-Stirred
RoomAir Model,LIVINGROOM2.1,Mixing/Well-Stirred
RoomAir Model,BEDROOM2.11,Mixing/Well-Stirred
RoomAir Model,BEDROOM2.10,Mixing/Well-Stirred
RoomAir Model,BEDROOM2.9,Mixing/Well-Stirred
RoomAir Model,LIVINGROOM2.3,Mixing/Well-Stirred
RoomAir Model,BEDROOM2.7,Mixing/Well-Stirred
RoomAir Model,LIVINGROOM2.2,Mixing/Well-Stirred
RoomAir Model,BEDROOM2.2,Mixing/Well-Stirred
RoomAir Model,BEDROOM2.8,Mixing/Well-Stirred
RoomAir Model,BEDROOM2.3,Mixing/Well-Stirred
RoomAir Model,BEDROOM2.1,Mixing/Well-Stirred
RoomAir Model,BEDROOM2.4,Mixing/Well-Stirred
RoomAir Model,BEDROOM2.6,Mixing/Well-Stirred
RoomAir Model,KITCHEN2.1,Mixing/Well-Stirred
RoomAir Model,KITCHEN2.4,Mixing/Well-Stirred
RoomAir Model,KITCHEN2.3,Mixing/Well-Stirred
RoomAir Model,STAIRCASE2.1,Mixing/Well-Stirred
RoomAir Model,BEDROOM2.12,Mixing/Well-Stirred
RoomAir Model,KITCHEN2.2,Mixing/Well-Stirred
RoomAir Model,LIVINGROOM3.4,Mixing/Well-Stirred
RoomAir Model,BEDROOM3.5,Mixing/Well-Stirred
RoomAir Model,LIVINGROOM3.1,Mixing/Well-Stirred
RoomAir Model,BEDROOM3.11,Mixing/Well-Stirred
RoomAir Model,BEDROOM3.10,Mixing/Well-Stirred
RoomAir Model,BEDROOM3.9,Mixing/Well-Stirred
RoomAir Model,LIVINGROOM3.3,Mixing/Well-Stirred
RoomAir Model,KITCHEN3.4,Mixing/Well-Stirred
RoomAir Model,KITCHEN3.1,Mixing/Well-Stirred
RoomAir Model,BEDROOM3.4,Mixing/Well-Stirred
RoomAir Model,BEDROOM3.6,Mixing/Well-Stirred
RoomAir Model,KITCHEN3.3,Mixing/Well-Stirred
RoomAir Model,KITCHEN3.2,Mixing/Well-Stirred
RoomAir Model,BEDROOM3.12,Mixing/Well-Stirred
RoomAir Model,STAIRCASE3.1,Mixing/Well-Stirred
RoomAir Model,BEDROOM3.3,Mixing/Well-Stirred
RoomAir Model,BEDROOM3.1,Mixing/Well-Stirred
RoomAir Model,BEDROOM3.8,Mixing/Well-Stirred
RoomAir Model,BEDROOM3.2,Mixing/Well-Stirred
RoomAir Model,LIVINGROOM3.2,Mixing/Well-Stirred
RoomAir Model,BEDROOM3.7,Mixing/Well-Stirred
! <AirflowNetwork Model:Control>, No Multizone or Distribution/Multizone with Distribution/Multizone without Distribution/Multizone with Distribution only during Fan Operation
AirflowNetwork Model:Control,NoMultizoneOrDistribution
! <Zone Volume Capacitance Multiplier>, Sensible Heat Capacity Multiplier, Moisture Capacity Multiplier, Carbon Dioxide Capacity Multiplier, Generic Contaminant Capacity Multiplier
Zone Volume Capacitance Multiplier,   1.000 ,   1.000,   1.000,   1.000
! <Environment>,Environment Name,Environment Type, Start Date, End Date, Start DayOfWeek, Duration {#days}, Source:Start DayOfWeek,  Use Daylight Saving, Use Holidays, Apply Weekend Holiday Rule,  Use Rain Values, Use Snow Values
! <Environment:Special Days>, Special Day Name, Special Day Type, Source, Start Date, Duration {#days}
! <Environment:Daylight Saving>, Daylight Saving Indicator, Source, Start Date, End Date
! <Environment:WarmupDays>, NumberofWarmupDays
Environment,RUNPERIOD,WeatherFileRunPeriod,01/01/2015,12/31/2016,Thursday,365,Use RunPeriod Specified Day,Yes,Yes,No,Yes,Yes
Environment:Daylight Saving,Yes,InputFile,03/08,11/01
Environment:WarmupDays, 12
! <Warmup Convergence Information>,Zone Name,Environment Type/Name,Average Warmup Temperature Difference {deltaC},Std Dev Warmup Temperature Difference {deltaC},Max Temperature Pass/Fail Convergence,Min Temperature Pass/Fail Convergence,Average Warmup Load Difference {W},Std Dev Warmup Load Difference {W},Heating Load Pass/Fail Convergence,Cooling Load Pass/Fail Convergence
 Warmup Convergence Information,KITCHEN1.1,RunPeriod: RUNPERIOD,7.3419567843E-002,6.5217825346E-002,Pass,Pass,0.0000000000,0.0000000000,Pass,Pass
 Warmup Convergence Information,BEDROOM1.4,RunPeriod: RUNPERIOD,0.1857791317,0.8464201886,Pass,Pass,2.1308893595E-002,0.1161616091,Pass,Pass
 Warmup Convergence Information,KITCHEN1.2,RunPeriod: RUNPERIOD,7.3441007724E-002,6.5271096254E-002,Pass,Pass,0.0000000000,0.0000000000,Pass,Pass
 Warmup Convergence Information,LIVINGROOM1.2,RunPeriod: RUNPERIOD,0.1969778957,0.8502123898,Pass,Pass,2.2709026268E-002,8.9781763461E-002,Pass,Pass
 Warmup Convergence Information,BEDROOM1.7,RunPeriod: RUNPERIOD,0.1858172208,0.8304216610,Pass,Pass,2.7433963082E-002,0.1434364892,Pass,Pass
 Warmup Convergence Information,LIVINGROOM1.3,RunPeriod: RUNPERIOD,0.1960547984,0.8440172509,Pass,Pass,2.2778374295E-002,9.0198512856E-002,Pass,Pass
 Warmup Convergence Information,BEDROOM1.9,RunPeriod: RUNPERIOD,0.1853264828,0.8395584289,Pass,Pass,2.2075234638E-002,0.1196182060,Pass,Pass
 Warmup Convergence Information,BEDROOM1.10,RunPeriod: RUNPERIOD,0.1820755746,0.8347766121,Pass,Pass,2.0407832687E-002,0.1128705798,Pass,Pass
 Warmup Convergence Information,BEDROOM1.11,RunPeriod: RUNPERIOD,0.1822408860,0.8356955404,Pass,Pass,2.0329056826E-002,0.1125430819,Pass,Pass
 Warmup Convergence Information,BEDROOM1.12,RunPeriod: RUNPERIOD,0.1860426018,0.8448208401,Pass,Pass,2.1638074343E-002,0.1176654099,Pass,Pass
 Warmup Convergence Information,STAIRCASE1.1,RunPeriod: RUNPERIOD,1.9757831916E-003,1.0737678712E-003,Pass,Pass,0.0000000000,0.0000000000,Pass,Pass
 Warmup Convergence Information,KITCHEN1.3,RunPeriod: RUNPERIOD,7.3406024100E-002,6.5219488288E-002,Pass,Pass,0.0000000000,0.0000000000,Pass,Pass
 Warmup Convergence Information,KITCHEN1.4,RunPeriod: RUNPERIOD,7.3422224527E-002,6.5194022320E-002,Pass,Pass,0.0000000000,0.0000000000,Pass,Pass
 Warmup Convergence Information,LIVINGROOM1.4,RunPeriod: RUNPERIOD,0.1968782901,0.8497115895,Pass,Pass,2.2715732932E-002,8.9792795880E-002,Pass,Pass
 Warmup Convergence Information,BEDROOM1.6,RunPeriod: RUNPERIOD,0.1865009803,0.8353445460,Pass,Pass,2.6919040907E-002,0.1409879326,Pass,Pass
 Warmup Convergence Information,BEDROOM1.8,RunPeriod: RUNPERIOD,0.1864917127,0.8352912355,Pass,Pass,2.6925300153E-002,0.1410183537,Pass,Pass
 Warmup Convergence Information,BEDROOM1.3,RunPeriod: RUNPERIOD,0.1820021098,0.8378806190,Pass,Pass,2.0062982864E-002,0.1106680809,Pass,Pass
 Warmup Convergence Information,BEDROOM1.2,RunPeriod: RUNPERIOD,0.1818335980,0.8369489387,Pass,Pass,2.0098336883E-002,0.1110025601,Pass,Pass
 Warmup Convergence Information,BEDROOM1.1,RunPeriod: RUNPERIOD,0.1850469920,0.8410798457,Pass,Pass,2.1752258966E-002,0.1181252117,Pass,Pass
 Warmup Convergence Information,LIVINGROOM1.1,RunPeriod: RUNPERIOD,0.1961525830,0.8445094351,Pass,Pass,2.2771523856E-002,9.0184899708E-002,Pass,Pass
 Warmup Convergence Information,BEDROOM1.5,RunPeriod: RUNPERIOD,0.1858262835,0.8304741338,Pass,Pass,2.7427690435E-002,0.1434058255,Pass,Pass
 Warmup Convergence Information,LIVINGROOM2.4,RunPeriod: RUNPERIOD,0.2028988065,0.8794384147,Pass,Pass,2.2320966081E-002,8.9314697485E-002,Pass,Pass
 Warmup Convergence Information,BEDROOM2.5,RunPeriod: RUNPERIOD,0.1904072808,0.8539626154,Pass,Pass,2.5686583906E-002,0.1346809515,Pass,Pass
 Warmup Convergence Information,LIVINGROOM2.1,RunPeriod: RUNPERIOD,0.2021164775,0.8739646838,Pass,Pass,2.2368408694E-002,8.9592263253E-002,Pass,Pass
 Warmup Convergence Information,BEDROOM2.11,RunPeriod: RUNPERIOD,0.1865147346,0.8573507128,Pass,Pass,1.9765715152E-002,0.1071489531,Pass,Pass
 Warmup Convergence Information,BEDROOM2.10,RunPeriod: RUNPERIOD,0.1863390117,0.8563877015,Pass,Pass,1.9798780071E-002,0.1074673734,Pass,Pass
 Warmup Convergence Information,BEDROOM2.9,RunPeriod: RUNPERIOD,0.1892919738,0.8596409707,Pass,Pass,2.1009700590E-002,0.1145857153,Pass,Pass
 Warmup Convergence Information,LIVINGROOM2.3,RunPeriod: RUNPERIOD,0.2020112678,0.8734280485,Pass,Pass,2.2374272364E-002,8.9596934327E-002,Pass,Pass
 Warmup Convergence Information,BEDROOM2.7,RunPeriod: RUNPERIOD,0.1903973570,0.8539062073,Pass,Pass,2.5692737156E-002,0.1347102984,Pass,Pass
 Warmup Convergence Information,LIVINGROOM2.2,RunPeriod: RUNPERIOD,0.2030062518,0.8799852214,Pass,Pass,2.2315229954E-002,8.9313108824E-002,Pass,Pass
 Warmup Convergence Information,BEDROOM2.2,RunPeriod: RUNPERIOD,0.1861948444,0.8589762050,Pass,Pass,1.9623734571E-002,0.1055995556,Pass,Pass
 Warmup Convergence Information,BEDROOM2.8,RunPeriod: RUNPERIOD,0.1911262953,0.8589978796,Pass,Pass,2.5217615547E-002,0.1324763585,Pass,Pass
 Warmup Convergence Information,BEDROOM2.3,RunPeriod: RUNPERIOD,0.1863741688,0.8599529198,Pass,Pass,1.9590835198E-002,0.1052821448,Pass,Pass
 Warmup Convergence Information,BEDROOM2.1,RunPeriod: RUNPERIOD,0.1890679411,0.8614420092,Pass,Pass,2.0671713137E-002,0.1130778483,Pass,Pass
 Warmup Convergence Information,BEDROOM2.4,RunPeriod: RUNPERIOD,0.1898604393,0.8670059127,Pass,Pass,2.0462927046E-002,0.1111700541,Pass,Pass
 Warmup Convergence Information,BEDROOM2.6,RunPeriod: RUNPERIOD,0.1911364677,0.8590551652,Pass,Pass,2.5211427855E-002,0.1324467805,Pass,Pass
 Warmup Convergence Information,KITCHEN2.1,RunPeriod: RUNPERIOD,7.5416913862E-002,6.4835990021E-002,Pass,Pass,0.0000000000,0.0000000000,Pass,Pass
 Warmup Convergence Information,KITCHEN2.4,RunPeriod: RUNPERIOD,7.5418479371E-002,6.4854898666E-002,Pass,Pass,0.0000000000,0.0000000000,Pass,Pass
 Warmup Convergence Information,KITCHEN2.3,RunPeriod: RUNPERIOD,7.5403292824E-002,6.4851213448E-002,Pass,Pass,0.0000000000,0.0000000000,Pass,Pass
 Warmup Convergence Information,STAIRCASE2.1,RunPeriod: RUNPERIOD,2.2566329319E-003,1.2666931390E-003,Pass,Pass,0.0000000000,0.0000000000,Pass,Pass
 Warmup Convergence Information,BEDROOM2.12,RunPeriod: RUNPERIOD,0.1900653213,0.8651233447,Pass,Pass,2.0617672602E-002,0.1127238874,Pass,Pass
 Warmup Convergence Information,KITCHEN2.2,RunPeriod: RUNPERIOD,7.5431982688E-002,6.4840373459E-002,Pass,Pass,0.0000000000,0.0000000000,Pass,Pass
 Warmup Convergence Information,LIVINGROOM3.4,RunPeriod: RUNPERIOD,0.2098550716,0.9184184829,Pass,Pass,2.1091137131E-002,8.7907052092E-002,Pass,Pass
 Warmup Convergence Information,BEDROOM3.5,RunPeriod: RUNPERIOD,0.1974439539,0.8927685284,Pass,Pass,2.2011204003E-002,0.1184878232,Pass,Pass
 Warmup Convergence Information,LIVINGROOM3.1,RunPeriod: RUNPERIOD,0.2090240196,0.9129886448,Pass,Pass,2.1123956466E-002,8.7894156890E-002,Pass,Pass
 Warmup Convergence Information,BEDROOM3.11,RunPeriod: RUNPERIOD,0.1925244846,0.8912158920,Pass,Pass,1.8551149350E-002,9.6447206171E-002,Pass,Pass
 Warmup Convergence Information,BEDROOM3.10,RunPeriod: RUNPERIOD,0.1923573490,0.8903348893,Pass,Pass,1.8575151050E-002,9.6688432118E-002,Pass,Pass
 Warmup Convergence Information,BEDROOM3.9,RunPeriod: RUNPERIOD,0.1951501144,0.8927291378,Pass,Pass,1.9501265994E-002,0.1035279466,Pass,Pass
 Warmup Convergence Information,LIVINGROOM3.3,RunPeriod: RUNPERIOD,0.2089217694,0.9124672157,Pass,Pass,2.1127543463E-002,8.7881729686E-002,Pass,Pass
 Warmup Convergence Information,KITCHEN3.4,RunPeriod: RUNPERIOD,7.5128835049E-002,6.3279847571E-002,Pass,Pass,0.0000000000,0.0000000000,Pass,Pass
 Warmup Convergence Information,KITCHEN3.1,RunPeriod: RUNPERIOD,7.5128843397E-002,6.3229955977E-002,Pass,Pass,0.0000000000,0.0000000000,Pass,Pass
 Warmup Convergence Information,BEDROOM3.4,RunPeriod: RUNPERIOD,0.1958391625,0.8998128598,Pass,Pass,1.9233431262E-002,0.1006425127,Pass,Pass
 Warmup Convergence Information,BEDROOM3.6,RunPeriod: RUNPERIOD,0.1981860946,0.8975256595,Pass,Pass,2.1624515948E-002,0.1167951563,Pass,Pass
