Program Version,EnergyPlus, Version 8.7.0-78a111df4a, YMD=2019.06.21 03:10
! This file shows details about the branches, nodes, and other
! elements of the flow connections.
! This file is intended for use in "debugging" potential problems
! that may also be detected by the program, but may be more easily
! identified by "eye".
! This file is also intended to support software which draws a
! schematic diagram of the HVAC system.
! ===============================================================
! #Nodes,<Number of Unique Nodes>
 #Nodes,363
! <Node>,<NodeNumber>,<Node Name>,<Node Fluid Type>,<# Times Node Referenced After Definition>
 Node,1,THERMAL ZONE: SPACE 102 PTHP OUTSIDE AIR INLET,Air,1
 Node,2,THERMAL ZONE: SPACE 102 PTHP COOLING COIL CONDENSER INLET,Air,1
 Node,3,THERMAL ZONE: SPACE 103 PTHP OUTSIDE AIR INLET,Air,1
 Node,4,THERMAL ZONE: SPACE 103 PTHP COOLING COIL CONDENSER INLET,Air,1
 Node,5,THERMAL ZONE: SPACE 104 PTHP OUTSIDE AIR INLET,Air,1
 Node,6,THERMAL ZONE: SPACE 104 PTHP COOLING COIL CONDENSER INLET,Air,1
 Node,7,THERMAL ZONE: SPACE 105 PTHP OUTSIDE AIR INLET,Air,1
 Node,8,THERMAL ZONE: SPACE 105 PTHP COOLING COIL CONDENSER INLET,Air,1
 Node,9,THERMAL ZONE: SPACE 106 PTHP OUTSIDE AIR INLET,Air,1
 Node,10,THERMAL ZONE: SPACE 106 PTHP COOLING COIL CONDENSER INLET,Air,1
 Node,11,THERMAL ZONE: SPACE 107 PTHP OUTSIDE AIR INLET,Air,1
 Node,12,THERMAL ZONE: SPACE 107 PTHP COOLING COIL CONDENSER INLET,Air,1
 Node,13,THERMAL ZONE: SPACE 108 PTHP OUTSIDE AIR INLET,Air,1
 Node,14,THERMAL ZONE: SPACE 108 PTHP COOLING COIL CONDENSER INLET,Air,1
 Node,15,THERMAL ZONE: SPACE 109 PTHP OUTSIDE AIR INLET,Air,1
 Node,16,THERMAL ZONE: SPACE 109 PTHP COOLING COIL CONDENSER INLET,Air,1
 Node,17,THERMAL ZONE: SPACE 110 PTHP OUTSIDE AIR INLET,Air,1
 Node,18,THERMAL ZONE: SPACE 110 PTHP COOLING COIL CONDENSER INLET,Air,1
 Node,19,THERMAL ZONE: SPACE 111 PTHP OUTSIDE AIR INLET,Air,1
 Node,20,THERMAL ZONE: SPACE 111 PTHP COOLING COIL CONDENSER INLET,Air,1
 Node,21,THERMAL ZONE: SPACE 201 PTHP OUTSIDE AIR INLET,Air,1
 Node,22,THERMAL ZONE: SPACE 201 PTHP COOLING COIL CONDENSER INLET,Air,1
 Node,23,THERMAL ZONE: SPACE 202 PTHP OUTSIDE AIR INLET,Air,1
 Node,24,THERMAL ZONE: SPACE 202 PTHP COOLING COIL CONDENSER INLET,Air,1
 Node,25,THERMAL ZONE: SPACE 203 PTHP OUTSIDE AIR INLET,Air,1
 Node,26,THERMAL ZONE: SPACE 203 PTHP COOLING COIL CONDENSER INLET,Air,1
 Node,27,THERMAL ZONE: SPACE 204 PTHP OUTSIDE AIR INLET,Air,1
 Node,28,THERMAL ZONE: SPACE 204 PTHP COOLING COIL CONDENSER INLET,Air,1
 Node,29,THERMAL ZONE: SPACE 205 PTHP OUTSIDE AIR INLET,Air,1
 Node,30,THERMAL ZONE: SPACE 205 PTHP COOLING COIL CONDENSER INLET,Air,1
 Node,31,THERMAL ZONE: SPACE 206 PTHP OUTSIDE AIR INLET,Air,1
 Node,32,THERMAL ZONE: SPACE 206 PTHP COOLING COIL CONDENSER INLET,Air,1
 Node,33,THERMAL ZONE: SPACE 207 PTHP OUTSIDE AIR INLET,Air,1
 Node,34,THERMAL ZONE: SPACE 207 PTHP COOLING COIL CONDENSER INLET,Air,1
 Node,35,THERMAL ZONE: SPACE 208 PTHP OUTSIDE AIR INLET,Air,1
 Node,36,THERMAL ZONE: SPACE 208 PTHP COOLING COIL CONDENSER INLET,Air,1
 Node,37,THERMAL ZONE: SPACE 209 PTHP OUTSIDE AIR INLET,Air,1
 Node,38,THERMAL ZONE: SPACE 209 PTHP COOLING COIL CONDENSER INLET,Air,1
 Node,39,THERMAL ZONE: SPACE 210 PTHP OUTSIDE AIR INLET,Air,1
 Node,40,THERMAL ZONE: SPACE 210 PTHP COOLING COIL CONDENSER INLET,Air,1
 Node,41,THERMAL ZONE: SPACE 211 PTHP OUTSIDE AIR INLET,Air,1
 Node,42,THERMAL ZONE: SPACE 211 PTHP COOLING COIL CONDENSER INLET,Air,1
 Node,43,THERMAL ZONE: SPACE 301 PTHP OUTSIDE AIR INLET,Air,1
 Node,44,THERMAL ZONE: SPACE 301 PTHP COOLING COIL CONDENSER INLET,Air,1
 Node,45,THERMAL ZONE: SPACE 302 PTHP OUTSIDE AIR INLET,Air,1
 Node,46,THERMAL ZONE: SPACE 302 PTHP COOLING COIL CONDENSER INLET,Air,1
 Node,47,THERMAL ZONE: SPACE 303 PTHP OUTSIDE AIR INLET,Air,1
 Node,48,THERMAL ZONE: SPACE 303 PTHP COOLING COIL CONDENSER INLET,Air,1
 Node,49,THERMAL ZONE: SPACE 304 PTHP OUTSIDE AIR INLET,Air,1
 Node,50,THERMAL ZONE: SPACE 304 PTHP COOLING COIL CONDENSER INLET,Air,1
 Node,51,THERMAL ZONE: SPACE 305 PTHP OUTSIDE AIR INLET,Air,1
 Node,52,THERMAL ZONE: SPACE 305 PTHP COOLING COIL CONDENSER INLET,Air,1
 Node,53,THERMAL ZONE: SPACE 101 PTHP OUTSIDE AIR INLET,Air,1
 Node,54,THERMAL ZONE: SPACE 101 PTHP COOLING COIL CONDENSER INLET,Air,1
 Node,55,THERMAL ZONE: SPACE 306 PTHP OUTSIDE AIR INLET,Air,1
 Node,56,THERMAL ZONE: SPACE 306 PTHP COOLING COIL CONDENSER INLET,Air,1
 Node,57,THERMAL ZONE: SPACE 307 PTHP OUTSIDE AIR INLET,Air,1
 Node,58,THERMAL ZONE: SPACE 307 PTHP COOLING COIL CONDENSER INLET,Air,1
 Node,59,THERMAL ZONE: SPACE 308 PTHP OUTSIDE AIR INLET,Air,1
 Node,60,THERMAL ZONE: SPACE 308 PTHP COOLING COIL CONDENSER INLET,Air,1
 Node,61,THERMAL ZONE: SPACE 309 PTHP OUTSIDE AIR INLET,Air,1
 Node,62,THERMAL ZONE: SPACE 309 PTHP COOLING COIL CONDENSER INLET,Air,1
 Node,63,THERMAL ZONE: SPACE 310 PTHP OUTSIDE AIR INLET,Air,1
 Node,64,THERMAL ZONE: SPACE 310 PTHP COOLING COIL CONDENSER INLET,Air,1
 Node,65,THERMAL ZONE: SPACE 311 PTHP OUTSIDE AIR INLET,Air,1
 Node,66,THERMAL ZONE: SPACE 311 PTHP COOLING COIL CONDENSER INLET,Air,1
 Node,67,THERMAL ZONE: SPACE 102 ZONE AIR NODE,Air,0
 Node,68,THERMAL ZONE: SPACE 102 RETURN OUTLET,Air,0
 Node,69,THERMAL ZONE: SPACE 102 PTHP SUPPLY INLET,Air,2
 Node,70,THERMAL ZONE: SPACE 102 PTHP RETURN,Air,2
 Node,71,THERMAL ZONE: SPACE 103 ZONE AIR NODE,Air,0
 Node,72,THERMAL ZONE: SPACE 103 RETURN OUTLET,Air,0
 Node,73,THERMAL ZONE: SPACE 103 PTHP SUPPLY INLET,Air,2
 Node,74,THERMAL ZONE: SPACE 103 PTHP RETURN,Air,2
 Node,75,THERMAL ZONE: SPACE 104 ZONE AIR NODE,Air,0
 Node,76,THERMAL ZONE: SPACE 104 RETURN OUTLET,Air,0
 Node,77,THERMAL ZONE: SPACE 104 PTHP SUPPLY INLET,Air,2
 Node,78,THERMAL ZONE: SPACE 104 PTHP RETURN,Air,2
 Node,79,THERMAL ZONE: SPACE 105 ZONE AIR NODE,Air,0
 Node,80,THERMAL ZONE: SPACE 105 RETURN OUTLET,Air,0
 Node,81,THERMAL ZONE: SPACE 105 PTHP SUPPLY INLET,Air,2
 Node,82,THERMAL ZONE: SPACE 105 PTHP RETURN,Air,2
 Node,83,THERMAL ZONE: SPACE 106 ZONE AIR NODE,Air,0
 Node,84,THERMAL ZONE: SPACE 106 RETURN OUTLET,Air,0
 Node,85,THERMAL ZONE: SPACE 106 PTHP SUPPLY INLET,Air,2
 Node,86,THERMAL ZONE: SPACE 106 PTHP RETURN,Air,2
 Node,87,THERMAL ZONE: SPACE 107 ZONE AIR NODE,Air,0
 Node,88,THERMAL ZONE: SPACE 107 RETURN OUTLET,Air,0
 Node,89,THERMAL ZONE: SPACE 107 PTHP SUPPLY INLET,Air,2
 Node,90,THERMAL ZONE: SPACE 107 PTHP RETURN,Air,2
 Node,91,THERMAL ZONE: SPACE 108 ZONE AIR NODE,Air,0
 Node,92,THERMAL ZONE: SPACE 108 RETURN OUTLET,Air,0
 Node,93,THERMAL ZONE: SPACE 108 PTHP SUPPLY INLET,Air,2
 Node,94,THERMAL ZONE: SPACE 108 PTHP RETURN,Air,2
 Node,95,THERMAL ZONE: SPACE 109 ZONE AIR NODE,Air,0
 Node,96,THERMAL ZONE: SPACE 109 RETURN OUTLET,Air,0
 Node,97,THERMAL ZONE: SPACE 109 PTHP SUPPLY INLET,Air,2
 Node,98,THERMAL ZONE: SPACE 109 PTHP RETURN,Air,2
 Node,99,THERMAL ZONE: SPACE 110 ZONE AIR NODE,Air,0
 Node,100,THERMAL ZONE: SPACE 110 RETURN OUTLET,Air,0
 Node,101,THERMAL ZONE: SPACE 110 PTHP SUPPLY INLET,Air,2
 Node,102,THERMAL ZONE: SPACE 110 PTHP RETURN,Air,2
 Node,103,THERMAL ZONE: SPACE 111 ZONE AIR NODE,Air,0
 Node,104,THERMAL ZONE: SPACE 111 RETURN OUTLET,Air,0
 Node,105,THERMAL ZONE: SPACE 111 PTHP SUPPLY INLET,Air,2
 Node,106,THERMAL ZONE: SPACE 111 PTHP RETURN,Air,2
 Node,107,THERMAL ZONE: SPACE 201 ZONE AIR NODE,Air,0
 Node,108,THERMAL ZONE: SPACE 201 RETURN OUTLET,Air,0
 Node,109,THERMAL ZONE: SPACE 201 PTHP SUPPLY INLET,Air,2
 Node,110,THERMAL ZONE: SPACE 201 PTHP RETURN,Air,2
 Node,111,THERMAL ZONE: SPACE 202 ZONE AIR NODE,Air,0
 Node,112,THERMAL ZONE: SPACE 202 RETURN OUTLET,Air,0
 Node,113,THERMAL ZONE: SPACE 202 PTHP SUPPLY INLET,Air,2
 Node,114,THERMAL ZONE: SPACE 202 PTHP RETURN,Air,2
 Node,115,THERMAL ZONE: SPACE 203 ZONE AIR NODE,Air,0
 Node,116,THERMAL ZONE: SPACE 203 RETURN OUTLET,Air,0
 Node,117,THERMAL ZONE: SPACE 203 PTHP SUPPLY INLET,Air,2
 Node,118,THERMAL ZONE: SPACE 203 PTHP RETURN,Air,2
 Node,119,THERMAL ZONE: SPACE 204 ZONE AIR NODE,Air,0
 Node,120,THERMAL ZONE: SPACE 204 RETURN OUTLET,Air,0
 Node,121,THERMAL ZONE: SPACE 204 PTHP SUPPLY INLET,Air,2
 Node,122,THERMAL ZONE: SPACE 204 PTHP RETURN,Air,2
 Node,123,THERMAL ZONE: SPACE 205 ZONE AIR NODE,Air,0
 Node,124,THERMAL ZONE: SPACE 205 RETURN OUTLET,Air,0
 Node,125,THERMAL ZONE: SPACE 205 PTHP SUPPLY INLET,Air,2
 Node,126,THERMAL ZONE: SPACE 205 PTHP RETURN,Air,2
 Node,127,THERMAL ZONE: SPACE 206 ZONE AIR NODE,Air,0
 Node,128,THERMAL ZONE: SPACE 206 RETURN OUTLET,Air,0
 Node,129,THERMAL ZONE: SPACE 206 PTHP SUPPLY INLET,Air,2
 Node,130,THERMAL ZONE: SPACE 206 PTHP RETURN,Air,2
 Node,131,THERMAL ZONE: SPACE 207 ZONE AIR NODE,Air,0
 Node,132,THERMAL ZONE: SPACE 207 RETURN OUTLET,Air,0
 Node,133,THERMAL ZONE: SPACE 207 PTHP SUPPLY INLET,Air,2
 Node,134,THERMAL ZONE: SPACE 207 PTHP RETURN,Air,2
 Node,135,THERMAL ZONE: SPACE 208 ZONE AIR NODE,Air,0
 Node,136,THERMAL ZONE: SPACE 208 RETURN OUTLET,Air,0
 Node,137,THERMAL ZONE: SPACE 208 PTHP SUPPLY INLET,Air,2
 Node,138,THERMAL ZONE: SPACE 208 PTHP RETURN,Air,2
 Node,139,THERMAL ZONE: SPACE 209 ZONE AIR NODE,Air,0
 Node,140,THERMAL ZONE: SPACE 209 RETURN OUTLET,Air,0
 Node,141,THERMAL ZONE: SPACE 209 PTHP SUPPLY INLET,Air,2
 Node,142,THERMAL ZONE: SPACE 209 PTHP RETURN,Air,2
 Node,143,THERMAL ZONE: SPACE 210 ZONE AIR NODE,Air,0
 Node,144,THERMAL ZONE: SPACE 210 RETURN OUTLET,Air,0
 Node,145,THERMAL ZONE: SPACE 210 PTHP SUPPLY INLET,Air,2
 Node,146,THERMAL ZONE: SPACE 210 PTHP RETURN,Air,2
 Node,147,THERMAL ZONE: SPACE 211 ZONE AIR NODE,Air,0
 Node,148,THERMAL ZONE: SPACE 211 RETURN OUTLET,Air,0
 Node,149,THERMAL ZONE: SPACE 211 PTHP SUPPLY INLET,Air,2
 Node,150,THERMAL ZONE: SPACE 211 PTHP RETURN,Air,2
 Node,151,THERMAL ZONE: SPACE 301 ZONE AIR NODE,Air,0
 Node,152,THERMAL ZONE: SPACE 301 RETURN OUTLET,Air,0
 Node,153,THERMAL ZONE: SPACE 301 PTHP SUPPLY INLET,Air,2
 Node,154,THERMAL ZONE: SPACE 301 PTHP RETURN,Air,2
 Node,155,THERMAL ZONE: SPACE 302 ZONE AIR NODE,Air,0
 Node,156,THERMAL ZONE: SPACE 302 RETURN OUTLET,Air,0
 Node,157,THERMAL ZONE: SPACE 302 PTHP SUPPLY INLET,Air,2
 Node,158,THERMAL ZONE: SPACE 302 PTHP RETURN,Air,2
 Node,159,THERMAL ZONE: SPACE 303 ZONE AIR NODE,Air,0
 Node,160,THERMAL ZONE: SPACE 303 RETURN OUTLET,Air,0
 Node,161,THERMAL ZONE: SPACE 303 PTHP SUPPLY INLET,Air,2
 Node,162,THERMAL ZONE: SPACE 303 PTHP RETURN,Air,2
 Node,163,THERMAL ZONE: SPACE 304 ZONE AIR NODE,Air,0
 Node,164,THERMAL ZONE: SPACE 304 RETURN OUTLET,Air,0
 Node,165,THERMAL ZONE: SPACE 304 PTHP SUPPLY INLET,Air,2
 Node,166,THERMAL ZONE: SPACE 304 PTHP RETURN,Air,2
 Node,167,THERMAL ZONE: SPACE 305 ZONE AIR NODE,Air,0
 Node,168,THERMAL ZONE: SPACE 305 RETURN OUTLET,Air,0
 Node,169,THERMAL ZONE: SPACE 305 PTHP SUPPLY INLET,Air,2
 Node,170,THERMAL ZONE: SPACE 305 PTHP RETURN,Air,2
 Node,171,THERMAL ZONE: SPACE 101 ZONE AIR NODE,Air,0
 Node,172,THERMAL ZONE: SPACE 101 RETURN OUTLET,Air,0
 Node,173,THERMAL ZONE: SPACE 101 PTHP SUPPLY INLET,Air,2
 Node,174,THERMAL ZONE: SPACE 101 PTHP RETURN,Air,2
 Node,175,THERMAL ZONE: SPACE 306 ZONE AIR NODE,Air,0
 Node,176,THERMAL ZONE: SPACE 306 RETURN OUTLET,Air,0
 Node,177,THERMAL ZONE: SPACE 306 PTHP SUPPLY INLET,Air,2
 Node,178,THERMAL ZONE: SPACE 306 PTHP RETURN,Air,2
 Node,179,THERMAL ZONE: SPACE 307 ZONE AIR NODE,Air,0
 Node,180,THERMAL ZONE: SPACE 307 RETURN OUTLET,Air,0
 Node,181,THERMAL ZONE: SPACE 307 PTHP SUPPLY INLET,Air,2
 Node,182,THERMAL ZONE: SPACE 307 PTHP RETURN,Air,2
 Node,183,THERMAL ZONE: SPACE 308 ZONE AIR NODE,Air,0
 Node,184,THERMAL ZONE: SPACE 308 RETURN OUTLET,Air,0
 Node,185,THERMAL ZONE: SPACE 308 PTHP SUPPLY INLET,Air,2
 Node,186,THERMAL ZONE: SPACE 308 PTHP RETURN,Air,2
 Node,187,THERMAL ZONE: SPACE 309 ZONE AIR NODE,Air,0
 Node,188,THERMAL ZONE: SPACE 309 RETURN OUTLET,Air,0
 Node,189,THERMAL ZONE: SPACE 309 PTHP SUPPLY INLET,Air,2
 Node,190,THERMAL ZONE: SPACE 309 PTHP RETURN,Air,2
 Node,191,THERMAL ZONE: SPACE 310 ZONE AIR NODE,Air,0
 Node,192,THERMAL ZONE: SPACE 310 RETURN OUTLET,Air,0
 Node,193,THERMAL ZONE: SPACE 310 PTHP SUPPLY INLET,Air,2
 Node,194,THERMAL ZONE: SPACE 310 PTHP RETURN,Air,2
 Node,195,THERMAL ZONE: SPACE 311 ZONE AIR NODE,Air,0
 Node,196,THERMAL ZONE: SPACE 311 RETURN OUTLET,Air,0
 Node,197,THERMAL ZONE: SPACE 311 PTHP SUPPLY INLET,Air,2
 Node,198,THERMAL ZONE: SPACE 311 PTHP RETURN,Air,2
 Node,199,THERMAL ZONE: SPACE 102 PTHP MIXED AIR OUTLET,Air,1
 Node,200,THERMAL ZONE: SPACE 102 PTHP RELIEF AIR OUTLET,Air,0
 Node,201,THERMAL ZONE: SPACE 103 PTHP MIXED AIR OUTLET,Air,1
 Node,202,THERMAL ZONE: SPACE 103 PTHP RELIEF AIR OUTLET,Air,0
 Node,203,THERMAL ZONE: SPACE 104 PTHP MIXED AIR OUTLET,Air,1
 Node,204,THERMAL ZONE: SPACE 104 PTHP RELIEF AIR OUTLET,Air,0
 Node,205,THERMAL ZONE: SPACE 105 PTHP MIXED AIR OUTLET,Air,1
 Node,206,THERMAL ZONE: SPACE 105 PTHP RELIEF AIR OUTLET,Air,0
 Node,207,THERMAL ZONE: SPACE 106 PTHP MIXED AIR OUTLET,Air,1
 Node,208,THERMAL ZONE: SPACE 106 PTHP RELIEF AIR OUTLET,Air,0
 Node,209,THERMAL ZONE: SPACE 107 PTHP MIXED AIR OUTLET,Air,1
 Node,210,THERMAL ZONE: SPACE 107 PTHP RELIEF AIR OUTLET,Air,0
 Node,211,THERMAL ZONE: SPACE 108 PTHP MIXED AIR OUTLET,Air,1
 Node,212,THERMAL ZONE: SPACE 108 PTHP RELIEF AIR OUTLET,Air,0
 Node,213,THERMAL ZONE: SPACE 109 PTHP MIXED AIR OUTLET,Air,1
 Node,214,THERMAL ZONE: SPACE 109 PTHP RELIEF AIR OUTLET,Air,0
 Node,215,THERMAL ZONE: SPACE 110 PTHP MIXED AIR OUTLET,Air,1
 Node,216,THERMAL ZONE: SPACE 110 PTHP RELIEF AIR OUTLET,Air,0
 Node,217,THERMAL ZONE: SPACE 111 PTHP MIXED AIR OUTLET,Air,1
 Node,218,THERMAL ZONE: SPACE 111 PTHP RELIEF AIR OUTLET,Air,0
 Node,219,THERMAL ZONE: SPACE 201 PTHP MIXED AIR OUTLET,Air,1
 Node,220,THERMAL ZONE: SPACE 201 PTHP RELIEF AIR OUTLET,Air,0
 Node,221,THERMAL ZONE: SPACE 202 PTHP MIXED AIR OUTLET,Air,1
 Node,222,THERMAL ZONE: SPACE 202 PTHP RELIEF AIR OUTLET,Air,0
 Node,223,THERMAL ZONE: SPACE 203 PTHP MIXED AIR OUTLET,Air,1
 Node,224,THERMAL ZONE: SPACE 203 PTHP RELIEF AIR OUTLET,Air,0
 Node,225,THERMAL ZONE: SPACE 204 PTHP MIXED AIR OUTLET,Air,1
 Node,226,THERMAL ZONE: SPACE 204 PTHP RELIEF AIR OUTLET,Air,0
 Node,227,THERMAL ZONE: SPACE 205 PTHP MIXED AIR OUTLET,Air,1
 Node,228,THERMAL ZONE: SPACE 205 PTHP RELIEF AIR OUTLET,Air,0
 Node,229,THERMAL ZONE: SPACE 206 PTHP MIXED AIR OUTLET,Air,1
 Node,230,THERMAL ZONE: SPACE 206 PTHP RELIEF AIR OUTLET,Air,0
 Node,231,THERMAL ZONE: SPACE 207 PTHP MIXED AIR OUTLET,Air,1
 Node,232,THERMAL ZONE: SPACE 207 PTHP RELIEF AIR OUTLET,Air,0
 Node,233,THERMAL ZONE: SPACE 208 PTHP MIXED AIR OUTLET,Air,1
 Node,234,THERMAL ZONE: SPACE 208 PTHP RELIEF AIR OUTLET,Air,0
 Node,235,THERMAL ZONE: SPACE 209 PTHP MIXED AIR OUTLET,Air,1
 Node,236,THERMAL ZONE: SPACE 209 PTHP RELIEF AIR OUTLET,Air,0
 Node,237,THERMAL ZONE: SPACE 210 PTHP MIXED AIR OUTLET,Air,1
 Node,238,THERMAL ZONE: SPACE 210 PTHP RELIEF AIR OUTLET,Air,0
 Node,239,THERMAL ZONE: SPACE 211 PTHP MIXED AIR OUTLET,Air,1
 Node,240,THERMAL ZONE: SPACE 211 PTHP RELIEF AIR OUTLET,Air,0
 Node,241,THERMAL ZONE: SPACE 301 PTHP MIXED AIR OUTLET,Air,1
 Node,242,THERMAL ZONE: SPACE 301 PTHP RELIEF AIR OUTLET,Air,0
 Node,243,THERMAL ZONE: SPACE 302 PTHP MIXED AIR OUTLET,Air,1
 Node,244,THERMAL ZONE: SPACE 302 PTHP RELIEF AIR OUTLET,Air,0
 Node,245,THERMAL ZONE: SPACE 303 PTHP MIXED AIR OUTLET,Air,1
 Node,246,THERMAL ZONE: SPACE 303 PTHP RELIEF AIR OUTLET,Air,0
 Node,247,THERMAL ZONE: SPACE 304 PTHP MIXED AIR OUTLET,Air,1
 Node,248,THERMAL ZONE: SPACE 304 PTHP RELIEF AIR OUTLET,Air,0
 Node,249,THERMAL ZONE: SPACE 305 PTHP MIXED AIR OUTLET,Air,1
 Node,250,THERMAL ZONE: SPACE 305 PTHP RELIEF AIR OUTLET,Air,0
 Node,251,THERMAL ZONE: SPACE 101 PTHP MIXED AIR OUTLET,Air,1
 Node,252,THERMAL ZONE: SPACE 101 PTHP RELIEF AIR OUTLET,Air,0
 Node,253,THERMAL ZONE: SPACE 306 PTHP MIXED AIR OUTLET,Air,1
 Node,254,THERMAL ZONE: SPACE 306 PTHP RELIEF AIR OUTLET,Air,0
 Node,255,THERMAL ZONE: SPACE 307 PTHP MIXED AIR OUTLET,Air,1
 Node,256,THERMAL ZONE: SPACE 307 PTHP RELIEF AIR OUTLET,Air,0
 Node,257,THERMAL ZONE: SPACE 308 PTHP MIXED AIR OUTLET,Air,1
 Node,258,THERMAL ZONE: SPACE 308 PTHP RELIEF AIR OUTLET,Air,0
 Node,259,THERMAL ZONE: SPACE 309 PTHP MIXED AIR OUTLET,Air,1
 Node,260,THERMAL ZONE: SPACE 309 PTHP RELIEF AIR OUTLET,Air,0
 Node,261,THERMAL ZONE: SPACE 310 PTHP MIXED AIR OUTLET,Air,1
 Node,262,THERMAL ZONE: SPACE 310 PTHP RELIEF AIR OUTLET,Air,0
 Node,263,THERMAL ZONE: SPACE 311 PTHP MIXED AIR OUTLET,Air,1
 Node,264,THERMAL ZONE: SPACE 311 PTHP RELIEF AIR OUTLET,Air,0
 Node,265,THERMAL ZONE: SPACE 102 PTHP HEATING COIL OUTLET,Air,1
 Node,266,THERMAL ZONE: SPACE 102 PTHP SUPPLY FAN OUTLET,Air,1
 Node,267,THERMAL ZONE: SPACE 103 PTHP HEATING COIL OUTLET,Air,1
 Node,268,THERMAL ZONE: SPACE 103 PTHP SUPPLY FAN OUTLET,Air,1
 Node,269,THERMAL ZONE: SPACE 104 PTHP HEATING COIL OUTLET,Air,1
 Node,270,THERMAL ZONE: SPACE 104 PTHP SUPPLY FAN OUTLET,Air,1
 Node,271,THERMAL ZONE: SPACE 105 PTHP HEATING COIL OUTLET,Air,1
 Node,272,THERMAL ZONE: SPACE 105 PTHP SUPPLY FAN OUTLET,Air,1
 Node,273,THERMAL ZONE: SPACE 106 PTHP HEATING COIL OUTLET,Air,1
 Node,274,THERMAL ZONE: SPACE 106 PTHP SUPPLY FAN OUTLET,Air,1
 Node,275,THERMAL ZONE: SPACE 107 PTHP HEATING COIL OUTLET,Air,1
 Node,276,THERMAL ZONE: SPACE 107 PTHP SUPPLY FAN OUTLET,Air,1
 Node,277,THERMAL ZONE: SPACE 108 PTHP HEATING COIL OUTLET,Air,1
 Node,278,THERMAL ZONE: SPACE 108 PTHP SUPPLY FAN OUTLET,Air,1
 Node,279,THERMAL ZONE: SPACE 109 PTHP HEATING COIL OUTLET,Air,1
 Node,280,THERMAL ZONE: SPACE 109 PTHP SUPPLY FAN OUTLET,Air,1
 Node,281,THERMAL ZONE: SPACE 110 PTHP HEATING COIL OUTLET,Air,1
 Node,282,THERMAL ZONE: SPACE 110 PTHP SUPPLY FAN OUTLET,Air,1
 Node,283,THERMAL ZONE: SPACE 111 PTHP HEATING COIL OUTLET,Air,1
 Node,284,THERMAL ZONE: SPACE 111 PTHP SUPPLY FAN OUTLET,Air,1
 Node,285,THERMAL ZONE: SPACE 201 PTHP HEATING COIL OUTLET,Air,1
 Node,286,THERMAL ZONE: SPACE 201 PTHP SUPPLY FAN OUTLET,Air,1
 Node,287,THERMAL ZONE: SPACE 202 PTHP HEATING COIL OUTLET,Air,1
 Node,288,THERMAL ZONE: SPACE 202 PTHP SUPPLY FAN OUTLET,Air,1
 Node,289,THERMAL ZONE: SPACE 203 PTHP HEATING COIL OUTLET,Air,1
 Node,290,THERMAL ZONE: SPACE 203 PTHP SUPPLY FAN OUTLET,Air,1
 Node,291,THERMAL ZONE: SPACE 204 PTHP HEATING COIL OUTLET,Air,1
 Node,292,THERMAL ZONE: SPACE 204 PTHP SUPPLY FAN OUTLET,Air,1
 Node,293,THERMAL ZONE: SPACE 205 PTHP HEATING COIL OUTLET,Air,1
 Node,294,THERMAL ZONE: SPACE 205 PTHP SUPPLY FAN OUTLET,Air,1
 Node,295,THERMAL ZONE: SPACE 206 PTHP HEATING COIL OUTLET,Air,1
 Node,296,THERMAL ZONE: SPACE 206 PTHP SUPPLY FAN OUTLET,Air,1
 Node,297,THERMAL ZONE: SPACE 207 PTHP HEATING COIL OUTLET,Air,1
 Node,298,THERMAL ZONE: SPACE 207 PTHP SUPPLY FAN OUTLET,Air,1
 Node,299,THERMAL ZONE: SPACE 208 PTHP HEATING COIL OUTLET,Air,1
 Node,300,THERMAL ZONE: SPACE 208 PTHP SUPPLY FAN OUTLET,Air,1
 Node,301,THERMAL ZONE: SPACE 209 PTHP HEATING COIL OUTLET,Air,1
 Node,302,THERMAL ZONE: SPACE 209 PTHP SUPPLY FAN OUTLET,Air,1
 Node,303,THERMAL ZONE: SPACE 210 PTHP HEATING COIL OUTLET,Air,1
 Node,304,THERMAL ZONE: SPACE 210 PTHP SUPPLY FAN OUTLET,Air,1
 Node,305,THERMAL ZONE: SPACE 211 PTHP HEATING COIL OUTLET,Air,1
 Node,306,THERMAL ZONE: SPACE 211 PTHP SUPPLY FAN OUTLET,Air,1
 Node,307,THERMAL ZONE: SPACE 301 PTHP HEATING COIL OUTLET,Air,1
 Node,308,THERMAL ZONE: SPACE 301 PTHP SUPPLY FAN OUTLET,Air,1
 Node,309,THERMAL ZONE: SPACE 302 PTHP HEATING COIL OUTLET,Air,1
 Node,310,THERMAL ZONE: SPACE 302 PTHP SUPPLY FAN OUTLET,Air,1
 Node,311,THERMAL ZONE: SPACE 303 PTHP HEATING COIL OUTLET,Air,1
 Node,312,THERMAL ZONE: SPACE 303 PTHP SUPPLY FAN OUTLET,Air,1
 Node,313,THERMAL ZONE: SPACE 304 PTHP HEATING COIL OUTLET,Air,1
 Node,314,THERMAL ZONE: SPACE 304 PTHP SUPPLY FAN OUTLET,Air,1
 Node,315,THERMAL ZONE: SPACE 305 PTHP HEATING COIL OUTLET,Air,1
 Node,316,THERMAL ZONE: SPACE 305 PTHP SUPPLY FAN OUTLET,Air,1
 Node,317,THERMAL ZONE: SPACE 101 PTHP HEATING COIL OUTLET,Air,1
 Node,318,THERMAL ZONE: SPACE 101 PTHP SUPPLY FAN OUTLET,Air,1
 Node,319,THERMAL ZONE: SPACE 306 PTHP HEATING COIL OUTLET,Air,1
 Node,320,THERMAL ZONE: SPACE 306 PTHP SUPPLY FAN OUTLET,Air,1
 Node,321,THERMAL ZONE: SPACE 307 PTHP HEATING COIL OUTLET,Air,1
 Node,322,THERMAL ZONE: SPACE 307 PTHP SUPPLY FAN OUTLET,Air,1
 Node,323,THERMAL ZONE: SPACE 308 PTHP HEATING COIL OUTLET,Air,1
 Node,324,THERMAL ZONE: SPACE 308 PTHP SUPPLY FAN OUTLET,Air,1
 Node,325,THERMAL ZONE: SPACE 309 PTHP HEATING COIL OUTLET,Air,1
 Node,326,THERMAL ZONE: SPACE 309 PTHP SUPPLY FAN OUTLET,Air,1
 Node,327,THERMAL ZONE: SPACE 310 PTHP HEATING COIL OUTLET,Air,1
 Node,328,THERMAL ZONE: SPACE 310 PTHP SUPPLY FAN OUTLET,Air,1
 Node,329,THERMAL ZONE: SPACE 311 PTHP HEATING COIL OUTLET,Air,1
 Node,330,THERMAL ZONE: SPACE 311 PTHP SUPPLY FAN OUTLET,Air,1
 Node,331,THERMAL ZONE: SPACE 102 PTHP COOLING COIL OUTLET,Air,1
 Node,332,THERMAL ZONE: SPACE 103 PTHP COOLING COIL OUTLET,Air,1
 Node,333,THERMAL ZONE: SPACE 104 PTHP COOLING COIL OUTLET,Air,1
 Node,334,THERMAL ZONE: SPACE 105 PTHP COOLING COIL OUTLET,Air,1
 Node,335,THERMAL ZONE: SPACE 106 PTHP COOLING COIL OUTLET,Air,1
 Node,336,THERMAL ZONE: SPACE 107 PTHP COOLING COIL OUTLET,Air,1
 Node,337,THERMAL ZONE: SPACE 108 PTHP COOLING COIL OUTLET,Air,1
 Node,338,THERMAL ZONE: SPACE 109 PTHP COOLING COIL OUTLET,Air,1
 Node,339,THERMAL ZONE: SPACE 110 PTHP COOLING COIL OUTLET,Air,1
 Node,340,THERMAL ZONE: SPACE 111 PTHP COOLING COIL OUTLET,Air,1
 Node,341,THERMAL ZONE: SPACE 201 PTHP COOLING COIL OUTLET,Air,1
 Node,342,THERMAL ZONE: SPACE 202 PTHP COOLING COIL OUTLET,Air,1
 Node,343,THERMAL ZONE: SPACE 203 PTHP COOLING COIL OUTLET,Air,1
 Node,344,THERMAL ZONE: SPACE 204 PTHP COOLING COIL OUTLET,Air,1
 Node,345,THERMAL ZONE: SPACE 205 PTHP COOLING COIL OUTLET,Air,1
 Node,346,THERMAL ZONE: SPACE 206 PTHP COOLING COIL OUTLET,Air,1
 Node,347,THERMAL ZONE: SPACE 207 PTHP COOLING COIL OUTLET,Air,1
 Node,348,THERMAL ZONE: SPACE 208 PTHP COOLING COIL OUTLET,Air,1
 Node,349,THERMAL ZONE: SPACE 209 PTHP COOLING COIL OUTLET,Air,1
 Node,350,THERMAL ZONE: SPACE 210 PTHP COOLING COIL OUTLET,Air,1
 Node,351,THERMAL ZONE: SPACE 211 PTHP COOLING COIL OUTLET,Air,1
 Node,352,THERMAL ZONE: SPACE 301 PTHP COOLING COIL OUTLET,Air,1
 Node,353,THERMAL ZONE: SPACE 302 PTHP COOLING COIL OUTLET,Air,1
 Node,354,THERMAL ZONE: SPACE 303 PTHP COOLING COIL OUTLET,Air,1
 Node,355,THERMAL ZONE: SPACE 304 PTHP COOLING COIL OUTLET,Air,1
 Node,356,THERMAL ZONE: SPACE 305 PTHP COOLING COIL OUTLET,Air,1
 Node,357,THERMAL ZONE: SPACE 101 PTHP COOLING COIL OUTLET,Air,1
 Node,358,THERMAL ZONE: SPACE 306 PTHP COOLING COIL OUTLET,Air,1
 Node,359,THERMAL ZONE: SPACE 307 PTHP COOLING COIL OUTLET,Air,1
 Node,360,THERMAL ZONE: SPACE 308 PTHP COOLING COIL OUTLET,Air,1
 Node,361,THERMAL ZONE: SPACE 309 PTHP COOLING COIL OUTLET,Air,1
 Node,362,THERMAL ZONE: SPACE 310 PTHP COOLING COIL OUTLET,Air,1
 Node,363,THERMAL ZONE: SPACE 311 PTHP COOLING COIL OUTLET,Air,1
! ===============================================================
! Suspicious nodes have 0 references.  It is normal for some nodes, however.
! Listing nodes with 0 references (culled from previous list):
! <Suspicious Node>,<NodeNumber>,<Node Name>,<Node Fluid Type>,<# Times Node Referenced After Definition>
 Suspicious Node,67,THERMAL ZONE: SPACE 102 ZONE AIR NODE,Air,0
 Suspicious Node,68,THERMAL ZONE: SPACE 102 RETURN OUTLET,Air,0
 Suspicious Node,71,THERMAL ZONE: SPACE 103 ZONE AIR NODE,Air,0
 Suspicious Node,72,THERMAL ZONE: SPACE 103 RETURN OUTLET,Air,0
 Suspicious Node,75,THERMAL ZONE: SPACE 104 ZONE AIR NODE,Air,0
 Suspicious Node,76,THERMAL ZONE: SPACE 104 RETURN OUTLET,Air,0
 Suspicious Node,79,THERMAL ZONE: SPACE 105 ZONE AIR NODE,Air,0
 Suspicious Node,80,THERMAL ZONE: SPACE 105 RETURN OUTLET,Air,0
 Suspicious Node,83,THERMAL ZONE: SPACE 106 ZONE AIR NODE,Air,0
 Suspicious Node,84,THERMAL ZONE: SPACE 106 RETURN OUTLET,Air,0
 Suspicious Node,87,THERMAL ZONE: SPACE 107 ZONE AIR NODE,Air,0
 Suspicious Node,88,THERMAL ZONE: SPACE 107 RETURN OUTLET,Air,0
 Suspicious Node,91,THERMAL ZONE: SPACE 108 ZONE AIR NODE,Air,0
 Suspicious Node,92,THERMAL ZONE: SPACE 108 RETURN OUTLET,Air,0
 Suspicious Node,95,THERMAL ZONE: SPACE 109 ZONE AIR NODE,Air,0
 Suspicious Node,96,THERMAL ZONE: SPACE 109 RETURN OUTLET,Air,0
 Suspicious Node,99,THERMAL ZONE: SPACE 110 ZONE AIR NODE,Air,0
 Suspicious Node,100,THERMAL ZONE: SPACE 110 RETURN OUTLET,Air,0
 Suspicious Node,103,THERMAL ZONE: SPACE 111 ZONE AIR NODE,Air,0
 Suspicious Node,104,THERMAL ZONE: SPACE 111 RETURN OUTLET,Air,0
 Suspicious Node,107,THERMAL ZONE: SPACE 201 ZONE AIR NODE,Air,0
 Suspicious Node,108,THERMAL ZONE: SPACE 201 RETURN OUTLET,Air,0
 Suspicious Node,111,THERMAL ZONE: SPACE 202 ZONE AIR NODE,Air,0
 Suspicious Node,112,THERMAL ZONE: SPACE 202 RETURN OUTLET,Air,0
 Suspicious Node,115,THERMAL ZONE: SPACE 203 ZONE AIR NODE,Air,0
 Suspicious Node,116,THERMAL ZONE: SPACE 203 RETURN OUTLET,Air,0
 Suspicious Node,119,THERMAL ZONE: SPACE 204 ZONE AIR NODE,Air,0
 Suspicious Node,120,THERMAL ZONE: SPACE 204 RETURN OUTLET,Air,0
 Suspicious Node,123,THERMAL ZONE: SPACE 205 ZONE AIR NODE,Air,0
 Suspicious Node,124,THERMAL ZONE: SPACE 205 RETURN OUTLET,Air,0
 Suspicious Node,127,THERMAL ZONE: SPACE 206 ZONE AIR NODE,Air,0
 Suspicious Node,128,THERMAL ZONE: SPACE 206 RETURN OUTLET,Air,0
 Suspicious Node,131,THERMAL ZONE: SPACE 207 ZONE AIR NODE,Air,0
 Suspicious Node,132,THERMAL ZONE: SPACE 207 RETURN OUTLET,Air,0
 Suspicious Node,135,THERMAL ZONE: SPACE 208 ZONE AIR NODE,Air,0
 Suspicious Node,136,THERMAL ZONE: SPACE 208 RETURN OUTLET,Air,0
 Suspicious Node,139,THERMAL ZONE: SPACE 209 ZONE AIR NODE,Air,0
 Suspicious Node,140,THERMAL ZONE: SPACE 209 RETURN OUTLET,Air,0
 Suspicious Node,143,THERMAL ZONE: SPACE 210 ZONE AIR NODE,Air,0
 Suspicious Node,144,THERMAL ZONE: SPACE 210 RETURN OUTLET,Air,0
 Suspicious Node,147,THERMAL ZONE: SPACE 211 ZONE AIR NODE,Air,0
 Suspicious Node,148,THERMAL ZONE: SPACE 211 RETURN OUTLET,Air,0
 Suspicious Node,151,THERMAL ZONE: SPACE 301 ZONE AIR NODE,Air,0
 Suspicious Node,152,THERMAL ZONE: SPACE 301 RETURN OUTLET,Air,0
 Suspicious Node,155,THERMAL ZONE: SPACE 302 ZONE AIR NODE,Air,0
 Suspicious Node,156,THERMAL ZONE: SPACE 302 RETURN OUTLET,Air,0
 Suspicious Node,159,THERMAL ZONE: SPACE 303 ZONE AIR NODE,Air,0
 Suspicious Node,160,THERMAL ZONE: SPACE 303 RETURN OUTLET,Air,0
 Suspicious Node,163,THERMAL ZONE: SPACE 304 ZONE AIR NODE,Air,0
 Suspicious Node,164,THERMAL ZONE: SPACE 304 RETURN OUTLET,Air,0
 Suspicious Node,167,THERMAL ZONE: SPACE 305 ZONE AIR NODE,Air,0
 Suspicious Node,168,THERMAL ZONE: SPACE 305 RETURN OUTLET,Air,0
 Suspicious Node,171,THERMAL ZONE: SPACE 101 ZONE AIR NODE,Air,0
 Suspicious Node,172,THERMAL ZONE: SPACE 101 RETURN OUTLET,Air,0
 Suspicious Node,175,THERMAL ZONE: SPACE 306 ZONE AIR NODE,Air,0
 Suspicious Node,176,THERMAL ZONE: SPACE 306 RETURN OUTLET,Air,0
 Suspicious Node,179,THERMAL ZONE: SPACE 307 ZONE AIR NODE,Air,0
 Suspicious Node,180,THERMAL ZONE: SPACE 307 RETURN OUTLET,Air,0
 Suspicious Node,183,THERMAL ZONE: SPACE 308 ZONE AIR NODE,Air,0
 Suspicious Node,184,THERMAL ZONE: SPACE 308 RETURN OUTLET,Air,0
 Suspicious Node,187,THERMAL ZONE: SPACE 309 ZONE AIR NODE,Air,0
 Suspicious Node,188,THERMAL ZONE: SPACE 309 RETURN OUTLET,Air,0
 Suspicious Node,191,THERMAL ZONE: SPACE 310 ZONE AIR NODE,Air,0
 Suspicious Node,192,THERMAL ZONE: SPACE 310 RETURN OUTLET,Air,0
 Suspicious Node,195,THERMAL ZONE: SPACE 311 ZONE AIR NODE,Air,0
 Suspicious Node,196,THERMAL ZONE: SPACE 311 RETURN OUTLET,Air,0
 Suspicious Node,200,THERMAL ZONE: SPACE 102 PTHP RELIEF AIR OUTLET,Air,0
 Suspicious Node,202,THERMAL ZONE: SPACE 103 PTHP RELIEF AIR OUTLET,Air,0
 Suspicious Node,204,THERMAL ZONE: SPACE 104 PTHP RELIEF AIR OUTLET,Air,0
 Suspicious Node,206,THERMAL ZONE: SPACE 105 PTHP RELIEF AIR OUTLET,Air,0
 Suspicious Node,208,THERMAL ZONE: SPACE 106 PTHP RELIEF AIR OUTLET,Air,0
 Suspicious Node,210,THERMAL ZONE: SPACE 107 PTHP RELIEF AIR OUTLET,Air,0
 Suspicious Node,212,THERMAL ZONE: SPACE 108 PTHP RELIEF AIR OUTLET,Air,0
 Suspicious Node,214,THERMAL ZONE: SPACE 109 PTHP RELIEF AIR OUTLET,Air,0
 Suspicious Node,216,THERMAL ZONE: SPACE 110 PTHP RELIEF AIR OUTLET,Air,0
 Suspicious Node,218,THERMAL ZONE: SPACE 111 PTHP RELIEF AIR OUTLET,Air,0
 Suspicious Node,220,THERMAL ZONE: SPACE 201 PTHP RELIEF AIR OUTLET,Air,0
 Suspicious Node,222,THERMAL ZONE: SPACE 202 PTHP RELIEF AIR OUTLET,Air,0
 Suspicious Node,224,THERMAL ZONE: SPACE 203 PTHP RELIEF AIR OUTLET,Air,0
 Suspicious Node,226,THERMAL ZONE: SPACE 204 PTHP RELIEF AIR OUTLET,Air,0
 Suspicious Node,228,THERMAL ZONE: SPACE 205 PTHP RELIEF AIR OUTLET,Air,0
 Suspicious Node,230,THERMAL ZONE: SPACE 206 PTHP RELIEF AIR OUTLET,Air,0
 Suspicious Node,232,THERMAL ZONE: SPACE 207 PTHP RELIEF AIR OUTLET,Air,0
 Suspicious Node,234,THERMAL ZONE: SPACE 208 PTHP RELIEF AIR OUTLET,Air,0
 Suspicious Node,236,THERMAL ZONE: SPACE 209 PTHP RELIEF AIR OUTLET,Air,0
 Suspicious Node,238,THERMAL ZONE: SPACE 210 PTHP RELIEF AIR OUTLET,Air,0
 Suspicious Node,240,THERMAL ZONE: SPACE 211 PTHP RELIEF AIR OUTLET,Air,0
 Suspicious Node,242,THERMAL ZONE: SPACE 301 PTHP RELIEF AIR OUTLET,Air,0
 Suspicious Node,244,THERMAL ZONE: SPACE 302 PTHP RELIEF AIR OUTLET,Air,0
 Suspicious Node,246,THERMAL ZONE: SPACE 303 PTHP RELIEF AIR OUTLET,Air,0
 Suspicious Node,248,THERMAL ZONE: SPACE 304 PTHP RELIEF AIR OUTLET,Air,0
 Suspicious Node,250,THERMAL ZONE: SPACE 305 PTHP RELIEF AIR OUTLET,Air,0
 Suspicious Node,252,THERMAL ZONE: SPACE 101 PTHP RELIEF AIR OUTLET,Air,0
 Suspicious Node,254,THERMAL ZONE: SPACE 306 PTHP RELIEF AIR OUTLET,Air,0
 Suspicious Node,256,THERMAL ZONE: SPACE 307 PTHP RELIEF AIR OUTLET,Air,0
 Suspicious Node,258,THERMAL ZONE: SPACE 308 PTHP RELIEF AIR OUTLET,Air,0
 Suspicious Node,260,THERMAL ZONE: SPACE 309 PTHP RELIEF AIR OUTLET,Air,0
 Suspicious Node,262,THERMAL ZONE: SPACE 310 PTHP RELIEF AIR OUTLET,Air,0
 Suspicious Node,264,THERMAL ZONE: SPACE 311 PTHP RELIEF AIR OUTLET,Air,0
! ===============================================================
! <#Branch Lists>,<Number of Branch Lists>
 #Branch Lists,0
! <Branch List>,<Branch List Count>,<Branch List Name>,<Loop Name>,<Loop Type>,<Number of Branches>
! <Branch>,<Branch Count>,<Branch Name>,<Loop Name>,<Loop Type>,<Branch Inlet Node Name>,<Branch Outlet Node Name>
! ===============================================================
! <#Supply Air Paths>,<Number of Supply Air Paths>
 #Supply Air Paths,0
! <Supply Air Path>,<Supply Air Path Count>,<Supply Air Path Name>,<AirLoopHVAC Name>
! <#Components on Supply Air Path>,<Number of Components>
! <Supply Air Path Component>,<Component Count>,<Component Type>,<Component Name>,<AirLoopHVAC Name>
! <#Outlet Nodes on Supply Air Path Component>,<Number of Nodes>
! <Supply Air Path Component Nodes>,<Node Count>,<Component Type>,<Component Name>,<Inlet Node Name>,<Outlet Node Name>,<AirLoopHVAC Name>
! ===============================================================
! <#Return Air Paths>,<Number of Return Air Paths>
 #Return Air Paths,0
! <Return Air Path>,<Return Air Path Count>,<Return Air Path Name>,<AirLoopHVAC Name>
! <#Components on Return Air Path>,<Number of Components>
! <Return Air Path Component>,<Component Count>,<Component Type>,<Component Name>,<AirLoopHVAC Name>
! <#Inlet Nodes on Return Air Path Component>,<Number of Nodes>
! <Return Air Path Component Nodes>,<Node Count>,<Component Type>,<Component Name>,<Inlet Node Name>,<Outlet Node Name>,<AirLoopHVAC Name>
! ===============================================================
! #Outdoor Air Nodes,<Number of Outdoor Air Nodes>
 #Outdoor Air Nodes,66
! <Outdoor Air Node>,<NodeNumber>,<Node Name>
 Outdoor Air Node,1,THERMAL ZONE: SPACE 102 PTHP OUTSIDE AIR INLET
 Outdoor Air Node,2,THERMAL ZONE: SPACE 102 PTHP COOLING COIL CONDENSER INLET
 Outdoor Air Node,3,THERMAL ZONE: SPACE 103 PTHP OUTSIDE AIR INLET
 Outdoor Air Node,4,THERMAL ZONE: SPACE 103 PTHP COOLING COIL CONDENSER INLET
 Outdoor Air Node,5,THERMAL ZONE: SPACE 104 PTHP OUTSIDE AIR INLET
 Outdoor Air Node,6,THERMAL ZONE: SPACE 104 PTHP COOLING COIL CONDENSER INLET
 Outdoor Air Node,7,THERMAL ZONE: SPACE 105 PTHP OUTSIDE AIR INLET
 Outdoor Air Node,8,THERMAL ZONE: SPACE 105 PTHP COOLING COIL CONDENSER INLET
 Outdoor Air Node,9,THERMAL ZONE: SPACE 106 PTHP OUTSIDE AIR INLET
 Outdoor Air Node,10,THERMAL ZONE: SPACE 106 PTHP COOLING COIL CONDENSER INLET
 Outdoor Air Node,11,THERMAL ZONE: SPACE 107 PTHP OUTSIDE AIR INLET
 Outdoor Air Node,12,THERMAL ZONE: SPACE 107 PTHP COOLING COIL CONDENSER INLET
 Outdoor Air Node,13,THERMAL ZONE: SPACE 108 PTHP OUTSIDE AIR INLET
 Outdoor Air Node,14,THERMAL ZONE: SPACE 108 PTHP COOLING COIL CONDENSER INLET
 Outdoor Air Node,15,THERMAL ZONE: SPACE 109 PTHP OUTSIDE AIR INLET
 Outdoor Air Node,16,THERMAL ZONE: SPACE 109 PTHP COOLING COIL CONDENSER INLET
 Outdoor Air Node,17,THERMAL ZONE: SPACE 110 PTHP OUTSIDE AIR INLET
 Outdoor Air Node,18,THERMAL ZONE: SPACE 110 PTHP COOLING COIL CONDENSER INLET
 Outdoor Air Node,19,THERMAL ZONE: SPACE 111 PTHP OUTSIDE AIR INLET
 Outdoor Air Node,20,THERMAL ZONE: SPACE 111 PTHP COOLING COIL CONDENSER INLET
 Outdoor Air Node,21,THERMAL ZONE: SPACE 201 PTHP OUTSIDE AIR INLET
 Outdoor Air Node,22,THERMAL ZONE: SPACE 201 PTHP COOLING COIL CONDENSER INLET
 Outdoor Air Node,23,THERMAL ZONE: SPACE 202 PTHP OUTSIDE AIR INLET
 Outdoor Air Node,24,THERMAL ZONE: SPACE 202 PTHP COOLING COIL CONDENSER INLET
 Outdoor Air Node,25,THERMAL ZONE: SPACE 203 PTHP OUTSIDE AIR INLET
 Outdoor Air Node,26,THERMAL ZONE: SPACE 203 PTHP COOLING COIL CONDENSER INLET
 Outdoor Air Node,27,THERMAL ZONE: SPACE 204 PTHP OUTSIDE AIR INLET
 Outdoor Air Node,28,THERMAL ZONE: SPACE 204 PTHP COOLING COIL CONDENSER INLET
 Outdoor Air Node,29,THERMAL ZONE: SPACE 205 PTHP OUTSIDE AIR INLET
 Outdoor Air Node,30,THERMAL ZONE: SPACE 205 PTHP COOLING COIL CONDENSER INLET
 Outdoor Air Node,31,THERMAL ZONE: SPACE 206 PTHP OUTSIDE AIR INLET
 Outdoor Air Node,32,THERMAL ZONE: SPACE 206 PTHP COOLING COIL CONDENSER INLET
 Outdoor Air Node,33,THERMAL ZONE: SPACE 207 PTHP OUTSIDE AIR INLET
 Outdoor Air Node,34,THERMAL ZONE: SPACE 207 PTHP COOLING COIL CONDENSER INLET
 Outdoor Air Node,35,THERMAL ZONE: SPACE 208 PTHP OUTSIDE AIR INLET
 Outdoor Air Node,36,THERMAL ZONE: SPACE 208 PTHP COOLING COIL CONDENSER INLET
 Outdoor Air Node,37,THERMAL ZONE: SPACE 209 PTHP OUTSIDE AIR INLET
 Outdoor Air Node,38,THERMAL ZONE: SPACE 209 PTHP COOLING COIL CONDENSER INLET
 Outdoor Air Node,39,THERMAL ZONE: SPACE 210 PTHP OUTSIDE AIR INLET
 Outdoor Air Node,40,THERMAL ZONE: SPACE 210 PTHP COOLING COIL CONDENSER INLET
 Outdoor Air Node,41,THERMAL ZONE: SPACE 211 PTHP OUTSIDE AIR INLET
 Outdoor Air Node,42,THERMAL ZONE: SPACE 211 PTHP COOLING COIL CONDENSER INLET
 Outdoor Air Node,43,THERMAL ZONE: SPACE 301 PTHP OUTSIDE AIR INLET
 Outdoor Air Node,44,THERMAL ZONE: SPACE 301 PTHP COOLING COIL CONDENSER INLET
 Outdoor Air Node,45,THERMAL ZONE: SPACE 302 PTHP OUTSIDE AIR INLET
 Outdoor Air Node,46,THERMAL ZONE: SPACE 302 PTHP COOLING COIL CONDENSER INLET
 Outdoor Air Node,47,THERMAL ZONE: SPACE 303 PTHP OUTSIDE AIR INLET
 Outdoor Air Node,48,THERMAL ZONE: SPACE 303 PTHP COOLING COIL CONDENSER INLET
 Outdoor Air Node,49,THERMAL ZONE: SPACE 304 PTHP OUTSIDE AIR INLET
 Outdoor Air Node,50,THERMAL ZONE: SPACE 304 PTHP COOLING COIL CONDENSER INLET
 Outdoor Air Node,51,THERMAL ZONE: SPACE 305 PTHP OUTSIDE AIR INLET
 Outdoor Air Node,52,THERMAL ZONE: SPACE 305 PTHP COOLING COIL CONDENSER INLET
 Outdoor Air Node,53,THERMAL ZONE: SPACE 101 PTHP OUTSIDE AIR INLET
 Outdoor Air Node,54,THERMAL ZONE: SPACE 101 PTHP COOLING COIL CONDENSER INLET
 Outdoor Air Node,55,THERMAL ZONE: SPACE 306 PTHP OUTSIDE AIR INLET
 Outdoor Air Node,56,THERMAL ZONE: SPACE 306 PTHP COOLING COIL CONDENSER INLET
 Outdoor Air Node,57,THERMAL ZONE: SPACE 307 PTHP OUTSIDE AIR INLET
 Outdoor Air Node,58,THERMAL ZONE: SPACE 307 PTHP COOLING COIL CONDENSER INLET
 Outdoor Air Node,59,THERMAL ZONE: SPACE 308 PTHP OUTSIDE AIR INLET
 Outdoor Air Node,60,THERMAL ZONE: SPACE 308 PTHP COOLING COIL CONDENSER INLET
 Outdoor Air Node,61,THERMAL ZONE: SPACE 309 PTHP OUTSIDE AIR INLET
 Outdoor Air Node,62,THERMAL ZONE: SPACE 309 PTHP COOLING COIL CONDENSER INLET
 Outdoor Air Node,63,THERMAL ZONE: SPACE 310 PTHP OUTSIDE AIR INLET
 Outdoor Air Node,64,THERMAL ZONE: SPACE 310 PTHP COOLING COIL CONDENSER INLET
 Outdoor Air Node,65,THERMAL ZONE: SPACE 311 PTHP OUTSIDE AIR INLET
 Outdoor Air Node,66,THERMAL ZONE: SPACE 311 PTHP COOLING COIL CONDENSER INLET
! ===============================================================
! <#Component Sets>,<Number of Component Sets>
 #Component Sets,165
! <Component Set>,<Component Set Count>,<Parent Object Type>,<Parent Object Name>,<Component Type>,<Component Name>,<Inlet Node ID>,<Outlet Node ID>,<Description>
 Component Set,1,ZONEHVAC:PACKAGEDTERMINALHEATPUMP,THERMAL ZONE: SPACE 102 PTHP,OUTDOORAIR:MIXER,THERMAL ZONE: SPACE 102 PTHP OA MIXING BOX,THERMAL ZONE: SPACE 102 PTHP OUTSIDE AIR INLET,THERMAL ZONE: SPACE 102 PTHP MIXED AIR OUTLET,Air Nodes
 Component Set,2,ZONEHVAC:PACKAGEDTERMINALHEATPUMP,THERMAL ZONE: SPACE 103 PTHP,OUTDOORAIR:MIXER,THERMAL ZONE: SPACE 103 PTHP OA MIXING BOX,THERMAL ZONE: SPACE 103 PTHP OUTSIDE AIR INLET,THERMAL ZONE: SPACE 103 PTHP MIXED AIR OUTLET,Air Nodes
 Component Set,3,ZONEHVAC:PACKAGEDTERMINALHEATPUMP,THERMAL ZONE: SPACE 104 PTHP,OUTDOORAIR:MIXER,THERMAL ZONE: SPACE 104 PTHP OA MIXING BOX,THERMAL ZONE: SPACE 104 PTHP OUTSIDE AIR INLET,THERMAL ZONE: SPACE 104 PTHP MIXED AIR OUTLET,Air Nodes
 Component Set,4,ZONEHVAC:PACKAGEDTERMINALHEATPUMP,THERMAL ZONE: SPACE 105 PTHP,OUTDOORAIR:MIXER,THERMAL ZONE: SPACE 105 PTHP OA MIXING BOX,THERMAL ZONE: SPACE 105 PTHP OUTSIDE AIR INLET,THERMAL ZONE: SPACE 105 PTHP MIXED AIR OUTLET,Air Nodes
 Component Set,5,ZONEHVAC:PACKAGEDTERMINALHEATPUMP,THERMAL ZONE: SPACE 106 PTHP,OUTDOORAIR:MIXER,THERMAL ZONE: SPACE 106 PTHP OA MIXING BOX,THERMAL ZONE: SPACE 106 PTHP OUTSIDE AIR INLET,THERMAL ZONE: SPACE 106 PTHP MIXED AIR OUTLET,Air Nodes
 Component Set,6,ZONEHVAC:PACKAGEDTERMINALHEATPUMP,THERMAL ZONE: SPACE 107 PTHP,OUTDOORAIR:MIXER,THERMAL ZONE: SPACE 107 PTHP OA MIXING BOX,THERMAL ZONE: SPACE 107 PTHP OUTSIDE AIR INLET,THERMAL ZONE: SPACE 107 PTHP MIXED AIR OUTLET,Air Nodes
 Component Set,7,ZONEHVAC:PACKAGEDTERMINALHEATPUMP,THERMAL ZONE: SPACE 108 PTHP,OUTDOORAIR:MIXER,THERMAL ZONE: SPACE 108 PTHP OA MIXING BOX,THERMAL ZONE: SPACE 108 PTHP OUTSIDE AIR INLET,THERMAL ZONE: SPACE 108 PTHP MIXED AIR OUTLET,Air Nodes
 Component Set,8,ZONEHVAC:PACKAGEDTERMINALHEATPUMP,THERMAL ZONE: SPACE 109 PTHP,OUTDOORAIR:MIXER,THERMAL ZONE: SPACE 109 PTHP OA MIXING BOX,THERMAL ZONE: SPACE 109 PTHP OUTSIDE AIR INLET,THERMAL ZONE: SPACE 109 PTHP MIXED AIR OUTLET,Air Nodes
 Component Set,9,ZONEHVAC:PACKAGEDTERMINALHEATPUMP,THERMAL ZONE: SPACE 110 PTHP,OUTDOORAIR:MIXER,THERMAL ZONE: SPACE 110 PTHP OA MIXING BOX,THERMAL ZONE: SPACE 110 PTHP OUTSIDE AIR INLET,THERMAL ZONE: SPACE 110 PTHP MIXED AIR OUTLET,Air Nodes
 Component Set,10,ZONEHVAC:PACKAGEDTERMINALHEATPUMP,THERMAL ZONE: SPACE 111 PTHP,OUTDOORAIR:MIXER,THERMAL ZONE: SPACE 111 PTHP OA MIXING BOX,THERMAL ZONE: SPACE 111 PTHP OUTSIDE AIR INLET,THERMAL ZONE: SPACE 111 PTHP MIXED AIR OUTLET,Air Nodes
 Component Set,11,ZONEHVAC:PACKAGEDTERMINALHEATPUMP,THERMAL ZONE: SPACE 201 PTHP,OUTDOORAIR:MIXER,THERMAL ZONE: SPACE 201 PTHP OA MIXING BOX,THERMAL ZONE: SPACE 201 PTHP OUTSIDE AIR INLET,THERMAL ZONE: SPACE 201 PTHP MIXED AIR OUTLET,Air Nodes
 Component Set,12,ZONEHVAC:PACKAGEDTERMINALHEATPUMP,THERMAL ZONE: SPACE 202 PTHP,OUTDOORAIR:MIXER,THERMAL ZONE: SPACE 202 PTHP OA MIXING BOX,THERMAL ZONE: SPACE 202 PTHP OUTSIDE AIR INLET,THERMAL ZONE: SPACE 202 PTHP MIXED AIR OUTLET,Air Nodes
 Component Set,13,ZONEHVAC:PACKAGEDTERMINALHEATPUMP,THERMAL ZONE: SPACE 203 PTHP,OUTDOORAIR:MIXER,THERMAL ZONE: SPACE 203 PTHP OA MIXING BOX,THERMAL ZONE: SPACE 203 PTHP OUTSIDE AIR INLET,THERMAL ZONE: SPACE 203 PTHP MIXED AIR OUTLET,Air Nodes
 Component Set,14,ZONEHVAC:PACKAGEDTERMINALHEATPUMP,THERMAL ZONE: SPACE 204 PTHP,OUTDOORAIR:MIXER,THERMAL ZONE: SPACE 204 PTHP OA MIXING BOX,THERMAL ZONE: SPACE 204 PTHP OUTSIDE AIR INLET,THERMAL ZONE: SPACE 204 PTHP MIXED AIR OUTLET,Air Nodes
 Component Set,15,ZONEHVAC:PACKAGEDTERMINALHEATPUMP,THERMAL ZONE: SPACE 205 PTHP,OUTDOORAIR:MIXER,THERMAL ZONE: SPACE 205 PTHP OA MIXING BOX,THERMAL ZONE: SPACE 205 PTHP OUTSIDE AIR INLET,THERMAL ZONE: SPACE 205 PTHP MIXED AIR OUTLET,Air Nodes
 Component Set,16,ZONEHVAC:PACKAGEDTERMINALHEATPUMP,THERMAL ZONE: SPACE 206 PTHP,OUTDOORAIR:MIXER,THERMAL ZONE: SPACE 206 PTHP OA MIXING BOX,THERMAL ZONE: SPACE 206 PTHP OUTSIDE AIR INLET,THERMAL ZONE: SPACE 206 PTHP MIXED AIR OUTLET,Air Nodes
 Component Set,17,ZONEHVAC:PACKAGEDTERMINALHEATPUMP,THERMAL ZONE: SPACE 207 PTHP,OUTDOORAIR:MIXER,THERMAL ZONE: SPACE 207 PTHP OA MIXING BOX,THERMAL ZONE: SPACE 207 PTHP OUTSIDE AIR INLET,THERMAL ZONE: SPACE 207 PTHP MIXED AIR OUTLET,Air Nodes
 Component Set,18,ZONEHVAC:PACKAGEDTERMINALHEATPUMP,THERMAL ZONE: SPACE 208 PTHP,OUTDOORAIR:MIXER,THERMAL ZONE: SPACE 208 PTHP OA MIXING BOX,THERMAL ZONE: SPACE 208 PTHP OUTSIDE AIR INLET,THERMAL ZONE: SPACE 208 PTHP MIXED AIR OUTLET,Air Nodes
 Component Set,19,ZONEHVAC:PACKAGEDTERMINALHEATPUMP,THERMAL ZONE: SPACE 209 PTHP,OUTDOORAIR:MIXER,THERMAL ZONE: SPACE 209 PTHP OA MIXING BOX,THERMAL ZONE: SPACE 209 PTHP OUTSIDE AIR INLET,THERMAL ZONE: SPACE 209 PTHP MIXED AIR OUTLET,Air Nodes
 Component Set,20,ZONEHVAC:PACKAGEDTERMINALHEATPUMP,THERMAL ZONE: SPACE 210 PTHP,OUTDOORAIR:MIXER,THERMAL ZONE: SPACE 210 PTHP OA MIXING BOX,THERMAL ZONE: SPACE 210 PTHP OUTSIDE AIR INLET,THERMAL ZONE: SPACE 210 PTHP MIXED AIR OUTLET,Air Nodes
 Component Set,21,ZONEHVAC:PACKAGEDTERMINALHEATPUMP,THERMAL ZONE: SPACE 211 PTHP,OUTDOORAIR:MIXER,THERMAL ZONE: SPACE 211 PTHP OA MIXING BOX,THERMAL ZONE: SPACE 211 PTHP OUTSIDE AIR INLET,THERMAL ZONE: SPACE 211 PTHP MIXED AIR OUTLET,Air Nodes
 Component Set,22,ZONEHVAC:PACKAGEDTERMINALHEATPUMP,THERMAL ZONE: SPACE 301 PTHP,OUTDOORAIR:MIXER,THERMAL ZONE: SPACE 301 PTHP OA MIXING BOX,THERMAL ZONE: SPACE 301 PTHP OUTSIDE AIR INLET,THERMAL ZONE: SPACE 301 PTHP MIXED AIR OUTLET,Air Nodes
 Component Set,23,ZONEHVAC:PACKAGEDTERMINALHEATPUMP,THERMAL ZONE: SPACE 302 PTHP,OUTDOORAIR:MIXER,THERMAL ZONE: SPACE 302 PTHP OA MIXING BOX,THERMAL ZONE: SPACE 302 PTHP OUTSIDE AIR INLET,THERMAL ZONE: SPACE 302 PTHP MIXED AIR OUTLET,Air Nodes
 Component Set,24,ZONEHVAC:PACKAGEDTERMINALHEATPUMP,THERMAL ZONE: SPACE 303 PTHP,OUTDOORAIR:MIXER,THERMAL ZONE: SPACE 303 PTHP OA MIXING BOX,THERMAL ZONE: SPACE 303 PTHP OUTSIDE AIR INLET,THERMAL ZONE: SPACE 303 PTHP MIXED AIR OUTLET,Air Nodes
 Component Set,25,ZONEHVAC:PACKAGEDTERMINALHEATPUMP,THERMAL ZONE: SPACE 304 PTHP,OUTDOORAIR:MIXER,THERMAL ZONE: SPACE 304 PTHP OA MIXING BOX,THERMAL ZONE: SPACE 304 PTHP OUTSIDE AIR INLET,THERMAL ZONE: SPACE 304 PTHP MIXED AIR OUTLET,Air Nodes
 Component Set,26,ZONEHVAC:PACKAGEDTERMINALHEATPUMP,THERMAL ZONE: SPACE 305 PTHP,OUTDOORAIR:MIXER,THERMAL ZONE: SPACE 305 PTHP OA MIXING BOX,THERMAL ZONE: SPACE 305 PTHP OUTSIDE AIR INLET,THERMAL ZONE: SPACE 305 PTHP MIXED AIR OUTLET,Air Nodes
 Component Set,27,ZONEHVAC:PACKAGEDTERMINALHEATPUMP,THERMAL ZONE: SPACE 101 PTHP,OUTDOORAIR:MIXER,THERMAL ZONE: SPACE 101 PTHP OA MIXING BOX,THERMAL ZONE: SPACE 101 PTHP OUTSIDE AIR INLET,THERMAL ZONE: SPACE 101 PTHP MIXED AIR OUTLET,Air Nodes
 Component Set,28,ZONEHVAC:PACKAGEDTERMINALHEATPUMP,THERMAL ZONE: SPACE 306 PTHP,OUTDOORAIR:MIXER,THERMAL ZONE: SPACE 306 PTHP OA MIXING BOX,THERMAL ZONE: SPACE 306 PTHP OUTSIDE AIR INLET,THERMAL ZONE: SPACE 306 PTHP MIXED AIR OUTLET,Air Nodes
 Component Set,29,ZONEHVAC:PACKAGEDTERMINALHEATPUMP,THERMAL ZONE: SPACE 307 PTHP,OUTDOORAIR:MIXER,THERMAL ZONE: SPACE 307 PTHP OA MIXING BOX,THERMAL ZONE: SPACE 307 PTHP OUTSIDE AIR INLET,THERMAL ZONE: SPACE 307 PTHP MIXED AIR OUTLET,Air Nodes
 Component Set,30,ZONEHVAC:PACKAGEDTERMINALHEATPUMP,THERMAL ZONE: SPACE 308 PTHP,OUTDOORAIR:MIXER,THERMAL ZONE: SPACE 308 PTHP OA MIXING BOX,THERMAL ZONE: SPACE 308 PTHP OUTSIDE AIR INLET,THERMAL ZONE: SPACE 308 PTHP MIXED AIR OUTLET,Air Nodes
 Component Set,31,ZONEHVAC:PACKAGEDTERMINALHEATPUMP,THERMAL ZONE: SPACE 309 PTHP,OUTDOORAIR:MIXER,THERMAL ZONE: SPACE 309 PTHP OA MIXING BOX,THERMAL ZONE: SPACE 309 PTHP OUTSIDE AIR INLET,THERMAL ZONE: SPACE 309 PTHP MIXED AIR OUTLET,Air Nodes
 Component Set,32,ZONEHVAC:PACKAGEDTERMINALHEATPUMP,THERMAL ZONE: SPACE 310 PTHP,OUTDOORAIR:MIXER,THERMAL ZONE: SPACE 310 PTHP OA MIXING BOX,THERMAL ZONE: SPACE 310 PTHP OUTSIDE AIR INLET,THERMAL ZONE: SPACE 310 PTHP MIXED AIR OUTLET,Air Nodes
 Component Set,33,ZONEHVAC:PACKAGEDTERMINALHEATPUMP,THERMAL ZONE: SPACE 311 PTHP,OUTDOORAIR:MIXER,THERMAL ZONE: SPACE 311 PTHP OA MIXING BOX,THERMAL ZONE: SPACE 311 PTHP OUTSIDE AIR INLET,THERMAL ZONE: SPACE 311 PTHP MIXED AIR OUTLET,Air Nodes
 Component Set,34,ZONEHVAC:PACKAGEDTERMINALHEATPUMP,THERMAL ZONE: SPACE 102 PTHP,FAN:ONOFF,THERMAL ZONE: SPACE 102 PTHP SUPPLY FAN,THERMAL ZONE: SPACE 102 PTHP HEATING COIL OUTLET,THERMAL ZONE: SPACE 102 PTHP SUPPLY FAN OUTLET,Air Nodes
 Component Set,35,ZONEHVAC:PACKAGEDTERMINALHEATPUMP,THERMAL ZONE: SPACE 103 PTHP,FAN:ONOFF,THERMAL ZONE: SPACE 103 PTHP SUPPLY FAN,THERMAL ZONE: SPACE 103 PTHP HEATING COIL OUTLET,THERMAL ZONE: SPACE 103 PTHP SUPPLY FAN OUTLET,Air Nodes
 Component Set,36,ZONEHVAC:PACKAGEDTERMINALHEATPUMP,THERMAL ZONE: SPACE 104 PTHP,FAN:ONOFF,THERMAL ZONE: SPACE 104 PTHP SUPPLY FAN,THERMAL ZONE: SPACE 104 PTHP HEATING COIL OUTLET,THERMAL ZONE: SPACE 104 PTHP SUPPLY FAN OUTLET,Air Nodes
 Component Set,37,ZONEHVAC:PACKAGEDTERMINALHEATPUMP,THERMAL ZONE: SPACE 105 PTHP,FAN:ONOFF,THERMAL ZONE: SPACE 105 PTHP SUPPLY FAN,THERMAL ZONE: SPACE 105 PTHP HEATING COIL OUTLET,THERMAL ZONE: SPACE 105 PTHP SUPPLY FAN OUTLET,Air Nodes
 Component Set,38,ZONEHVAC:PACKAGEDTERMINALHEATPUMP,THERMAL ZONE: SPACE 106 PTHP,FAN:ONOFF,THERMAL ZONE: SPACE 106 PTHP SUPPLY FAN,THERMAL ZONE: SPACE 106 PTHP HEATING COIL OUTLET,THERMAL ZONE: SPACE 106 PTHP SUPPLY FAN OUTLET,Air Nodes
 Component Set,39,ZONEHVAC:PACKAGEDTERMINALHEATPUMP,THERMAL ZONE: SPACE 107 PTHP,FAN:ONOFF,THERMAL ZONE: SPACE 107 PTHP SUPPLY FAN,THERMAL ZONE: SPACE 107 PTHP HEATING COIL OUTLET,THERMAL ZONE: SPACE 107 PTHP SUPPLY FAN OUTLET,Air Nodes
 Component Set,40,ZONEHVAC:PACKAGEDTERMINALHEATPUMP,THERMAL ZONE: SPACE 108 PTHP,FAN:ONOFF,THERMAL ZONE: SPACE 108 PTHP SUPPLY FAN,THERMAL ZONE: SPACE 108 PTHP HEATING COIL OUTLET,THERMAL ZONE: SPACE 108 PTHP SUPPLY FAN OUTLET,Air Nodes
 Component Set,41,ZONEHVAC:PACKAGEDTERMINALHEATPUMP,THERMAL ZONE: SPACE 109 PTHP,FAN:ONOFF,THERMAL ZONE: SPACE 109 PTHP SUPPLY FAN,THERMAL ZONE: SPACE 109 PTHP HEATING COIL OUTLET,THERMAL ZONE: SPACE 109 PTHP SUPPLY FAN OUTLET,Air Nodes
 Component Set,42,ZONEHVAC:PACKAGEDTERMINALHEATPUMP,THERMAL ZONE: SPACE 110 PTHP,FAN:ONOFF,THERMAL ZONE: SPACE 110 PTHP SUPPLY FAN,THERMAL ZONE: SPACE 110 PTHP HEATING COIL OUTLET,THERMAL ZONE: SPACE 110 PTHP SUPPLY FAN OUTLET,Air Nodes
 Component Set,43,ZONEHVAC:PACKAGEDTERMINALHEATPUMP,THERMAL ZONE: SPACE 111 PTHP,FAN:ONOFF,THERMAL ZONE: SPACE 111 PTHP SUPPLY FAN,THERMAL ZONE: SPACE 111 PTHP HEATING COIL OUTLET,THERMAL ZONE: SPACE 111 PTHP SUPPLY FAN OUTLET,Air Nodes
 Component Set,44,ZONEHVAC:PACKAGEDTERMINALHEATPUMP,THERMAL ZONE: SPACE 201 PTHP,FAN:ONOFF,THERMAL ZONE: SPACE 201 PTHP SUPPLY FAN,THERMAL ZONE: SPACE 201 PTHP HEATING COIL OUTLET,THERMAL ZONE: SPACE 201 PTHP SUPPLY FAN OUTLET,Air Nodes
 Component Set,45,ZONEHVAC:PACKAGEDTERMINALHEATPUMP,THERMAL ZONE: SPACE 202 PTHP,FAN:ONOFF,THERMAL ZONE: SPACE 202 PTHP SUPPLY FAN,THERMAL ZONE: SPACE 202 PTHP HEATING COIL OUTLET,THERMAL ZONE: SPACE 202 PTHP SUPPLY FAN OUTLET,Air Nodes
 Component Set,46,ZONEHVAC:PACKAGEDTERMINALHEATPUMP,THERMAL ZONE: SPACE 203 PTHP,FAN:ONOFF,THERMAL ZONE: SPACE 203 PTHP SUPPLY FAN,THERMAL ZONE: SPACE 203 PTHP HEATING COIL OUTLET,THERMAL ZONE: SPACE 203 PTHP SUPPLY FAN OUTLET,Air Nodes
 Component Set,47,ZONEHVAC:PACKAGEDTERMINALHEATPUMP,THERMAL ZONE: SPACE 204 PTHP,FAN:ONOFF,THERMAL ZONE: SPACE 204 PTHP SUPPLY FAN,THERMAL ZONE: SPACE 204 PTHP HEATING COIL OUTLET,THERMAL ZONE: SPACE 204 PTHP SUPPLY FAN OUTLET,Air Nodes
 Component Set,48,ZONEHVAC:PACKAGEDTERMINALHEATPUMP,THERMAL ZONE: SPACE 205 PTHP,FAN:ONOFF,THERMAL ZONE: SPACE 205 PTHP SUPPLY FAN,THERMAL ZONE: SPACE 205 PTHP HEATING COIL OUTLET,THERMAL ZONE: SPACE 205 PTHP SUPPLY FAN OUTLET,Air Nodes
 Component Set,49,ZONEHVAC:PACKAGEDTERMINALHEATPUMP,THERMAL ZONE: SPACE 206 PTHP,FAN:ONOFF,THERMAL ZONE: SPACE 206 PTHP SUPPLY FAN,THERMAL ZONE: SPACE 206 PTHP HEATING COIL OUTLET,THERMAL ZONE: SPACE 206 PTHP SUPPLY FAN OUTLET,Air Nodes
 Component Set,50,ZONEHVAC:PACKAGEDTERMINALHEATPUMP,THERMAL ZONE: SPACE 207 PTHP,FAN:ONOFF,THERMAL ZONE: SPACE 207 PTHP SUPPLY FAN,THERMAL ZONE: SPACE 207 PTHP HEATING COIL OUTLET,THERMAL ZONE: SPACE 207 PTHP SUPPLY FAN OUTLET,Air Nodes
 Component Set,51,ZONEHVAC:PACKAGEDTERMINALHEATPUMP,THERMAL ZONE: SPACE 208 PTHP,FAN:ONOFF,THERMAL ZONE: SPACE 208 PTHP SUPPLY FAN,THERMAL ZONE: SPACE 208 PTHP HEATING COIL OUTLET,THERMAL ZONE: SPACE 208 PTHP SUPPLY FAN OUTLET,Air Nodes
 Component Set,52,ZONEHVAC:PACKAGEDTERMINALHEATPUMP,THERMAL ZONE: SPACE 209 PTHP,FAN:ONOFF,THERMAL ZONE: SPACE 209 PTHP SUPPLY FAN,THERMAL ZONE: SPACE 209 PTHP HEATING COIL OUTLET,THERMAL ZONE: SPACE 209 PTHP SUPPLY FAN OUTLET,Air Nodes
 Component Set,53,ZONEHVAC:PACKAGEDTERMINALHEATPUMP,THERMAL ZONE: SPACE 210 PTHP,FAN:ONOFF,THERMAL ZONE: SPACE 210 PTHP SUPPLY FAN,THERMAL ZONE: SPACE 210 PTHP HEATING COIL OUTLET,THERMAL ZONE: SPACE 210 PTHP SUPPLY FAN OUTLET,Air Nodes
 Component Set,54,ZONEHVAC:PACKAGEDTERMINALHEATPUMP,THERMAL ZONE: SPACE 211 PTHP,FAN:ONOFF,THERMAL ZONE: SPACE 211 PTHP SUPPLY FAN,THERMAL ZONE: SPACE 211 PTHP HEATING COIL OUTLET,THERMAL ZONE: SPACE 211 PTHP SUPPLY FAN OUTLET,Air Nodes
 Component Set,55,ZONEHVAC:PACKAGEDTERMINALHEATPUMP,THERMAL ZONE: SPACE 301 PTHP,FAN:ONOFF,THERMAL ZONE: SPACE 301 PTHP SUPPLY FAN,THERMAL ZONE: SPACE 301 PTHP HEATING COIL OUTLET,THERMAL ZONE: SPACE 301 PTHP SUPPLY FAN OUTLET,Air Nodes
 Component Set,56,ZONEHVAC:PACKAGEDTERMINALHEATPUMP,THERMAL ZONE: SPACE 302 PTHP,FAN:ONOFF,THERMAL ZONE: SPACE 302 PTHP SUPPLY FAN,THERMAL ZONE: SPACE 302 PTHP HEATING COIL OUTLET,THERMAL ZONE: SPACE 302 PTHP SUPPLY FAN OUTLET,Air Nodes
 Component Set,57,ZONEHVAC:PACKAGEDTERMINALHEATPUMP,THERMAL ZONE: SPACE 303 PTHP,FAN:ONOFF,THERMAL ZONE: SPACE 303 PTHP SUPPLY FAN,THERMAL ZONE: SPACE 303 PTHP HEATING COIL OUTLET,THERMAL ZONE: SPACE 303 PTHP SUPPLY FAN OUTLET,Air Nodes
 Component Set,58,ZONEHVAC:PACKAGEDTERMINALHEATPUMP,THERMAL ZONE: SPACE 304 PTHP,FAN:ONOFF,THERMAL ZONE: SPACE 304 PTHP SUPPLY FAN,THERMAL ZONE: SPACE 304 PTHP HEATING COIL OUTLET,THERMAL ZONE: SPACE 304 PTHP SUPPLY FAN OUTLET,Air Nodes
 Component Set,59,ZONEHVAC:PACKAGEDTERMINALHEATPUMP,THERMAL ZONE: SPACE 305 PTHP,FAN:ONOFF,THERMAL ZONE: SPACE 305 PTHP SUPPLY FAN,THERMAL ZONE: SPACE 305 PTHP HEATING COIL OUTLET,THERMAL ZONE: SPACE 305 PTHP SUPPLY FAN OUTLET,Air Nodes
 Component Set,60,ZONEHVAC:PACKAGEDTERMINALHEATPUMP,THERMAL ZONE: SPACE 101 PTHP,FAN:ONOFF,THERMAL ZONE: SPACE 101 PTHP SUPPLY FAN,THERMAL ZONE: SPACE 101 PTHP HEATING COIL OUTLET,THERMAL ZONE: SPACE 101 PTHP SUPPLY FAN OUTLET,Air Nodes
 Component Set,61,ZONEHVAC:PACKAGEDTERMINALHEATPUMP,THERMAL ZONE: SPACE 306 PTHP,FAN:ONOFF,THERMAL ZONE: SPACE 306 PTHP SUPPLY FAN,THERMAL ZONE: SPACE 306 PTHP HEATING COIL OUTLET,THERMAL ZONE: SPACE 306 PTHP SUPPLY FAN OUTLET,Air Nodes
 Component Set,62,ZONEHVAC:PACKAGEDTERMINALHEATPUMP,THERMAL ZONE: SPACE 307 PTHP,FAN:ONOFF,THERMAL ZONE: SPACE 307 PTHP SUPPLY FAN,THERMAL ZONE: SPACE 307 PTHP HEATING COIL OUTLET,THERMAL ZONE: SPACE 307 PTHP SUPPLY FAN OUTLET,Air Nodes
 Component Set,63,ZONEHVAC:PACKAGEDTERMINALHEATPUMP,THERMAL ZONE: SPACE 308 PTHP,FAN:ONOFF,THERMAL ZONE: SPACE 308 PTHP SUPPLY FAN,THERMAL ZONE: SPACE 308 PTHP HEATING COIL OUTLET,THERMAL ZONE: SPACE 308 PTHP SUPPLY FAN OUTLET,Air Nodes
 Component Set,64,ZONEHVAC:PACKAGEDTERMINALHEATPUMP,THERMAL ZONE: SPACE 309 PTHP,FAN:ONOFF,THERMAL ZONE: SPACE 309 PTHP SUPPLY FAN,THERMAL ZONE: SPACE 309 PTHP HEATING COIL OUTLET,THERMAL ZONE: SPACE 309 PTHP SUPPLY FAN OUTLET,Air Nodes
 Component Set,65,ZONEHVAC:PACKAGEDTERMINALHEATPUMP,THERMAL ZONE: SPACE 310 PTHP,FAN:ONOFF,THERMAL ZONE: SPACE 310 PTHP SUPPLY FAN,THERMAL ZONE: SPACE 310 PTHP HEATING COIL OUTLET,THERMAL ZONE: SPACE 310 PTHP SUPPLY FAN OUTLET,Air Nodes
 Component Set,66,ZONEHVAC:PACKAGEDTERMINALHEATPUMP,THERMAL ZONE: SPACE 311 PTHP,FAN:ONOFF,THERMAL ZONE: SPACE 311 PTHP SUPPLY FAN,THERMAL ZONE: SPACE 311 PTHP HEATING COIL OUTLET,THERMAL ZONE: SPACE 311 PTHP SUPPLY FAN OUTLET,Air Nodes
 Component Set,67,ZONEHVAC:PACKAGEDTERMINALHEATPUMP,THERMAL ZONE: SPACE 102 PTHP,COIL:COOLING:DX:SINGLESPEED,THERMAL ZONE: SPACE 102 PTHP COOLING COIL,THERMAL ZONE: SPACE 102 PTHP MIXED AIR OUTLET,THERMAL ZONE: SPACE 102 PTHP COOLING COIL OUTLET,Air Nodes
 Component Set,68,ZONEHVAC:PACKAGEDTERMINALHEATPUMP,THERMAL ZONE: SPACE 103 PTHP,COIL:COOLING:DX:SINGLESPEED,THERMAL ZONE: SPACE 103 PTHP COOLING COIL,THERMAL ZONE: SPACE 103 PTHP MIXED AIR OUTLET,THERMAL ZONE: SPACE 103 PTHP COOLING COIL OUTLET,Air Nodes
 Component Set,69,ZONEHVAC:PACKAGEDTERMINALHEATPUMP,THERMAL ZONE: SPACE 104 PTHP,COIL:COOLING:DX:SINGLESPEED,THERMAL ZONE: SPACE 104 PTHP COOLING COIL,THERMAL ZONE: SPACE 104 PTHP MIXED AIR OUTLET,THERMAL ZONE: SPACE 104 PTHP COOLING COIL OUTLET,Air Nodes
 Component Set,70,ZONEHVAC:PACKAGEDTERMINALHEATPUMP,THERMAL ZONE: SPACE 105 PTHP,COIL:COOLING:DX:SINGLESPEED,THERMAL ZONE: SPACE 105 PTHP COOLING COIL,THERMAL ZONE: SPACE 105 PTHP MIXED AIR OUTLET,THERMAL ZONE: SPACE 105 PTHP COOLING COIL OUTLET,Air Nodes
 Component Set,71,ZONEHVAC:PACKAGEDTERMINALHEATPUMP,THERMAL ZONE: SPACE 106 PTHP,COIL:COOLING:DX:SINGLESPEED,THERMAL ZONE: SPACE 106 PTHP COOLING COIL,THERMAL ZONE: SPACE 106 PTHP MIXED AIR OUTLET,THERMAL ZONE: SPACE 106 PTHP COOLING COIL OUTLET,Air Nodes
 Component Set,72,ZONEHVAC:PACKAGEDTERMINALHEATPUMP,THERMAL ZONE: SPACE 107 PTHP,COIL:COOLING:DX:SINGLESPEED,THERMAL ZONE: SPACE 107 PTHP COOLING COIL,THERMAL ZONE: SPACE 107 PTHP MIXED AIR OUTLET,THERMAL ZONE: SPACE 107 PTHP COOLING COIL OUTLET,Air Nodes
 Component Set,73,ZONEHVAC:PACKAGEDTERMINALHEATPUMP,THERMAL ZONE: SPACE 108 PTHP,COIL:COOLING:DX:SINGLESPEED,THERMAL ZONE: SPACE 108 PTHP COOLING COIL,THERMAL ZONE: SPACE 108 PTHP MIXED AIR OUTLET,THERMAL ZONE: SPACE 108 PTHP COOLING COIL OUTLET,Air Nodes
 Component Set,74,ZONEHVAC:PACKAGEDTERMINALHEATPUMP,THERMAL ZONE: SPACE 109 PTHP,COIL:COOLING:DX:SINGLESPEED,THERMAL ZONE: SPACE 109 PTHP COOLING COIL,THERMAL ZONE: SPACE 109 PTHP MIXED AIR OUTLET,THERMAL ZONE: SPACE 109 PTHP COOLING COIL OUTLET,Air Nodes
 Component Set,75,ZONEHVAC:PACKAGEDTERMINALHEATPUMP,THERMAL ZONE: SPACE 110 PTHP,COIL:COOLING:DX:SINGLESPEED,THERMAL ZONE: SPACE 110 PTHP COOLING COIL,THERMAL ZONE: SPACE 110 PTHP MIXED AIR OUTLET,THERMAL ZONE: SPACE 110 PTHP COOLING COIL OUTLET,Air Nodes
 Component Set,76,ZONEHVAC:PACKAGEDTERMINALHEATPUMP,THERMAL ZONE: SPACE 111 PTHP,COIL:COOLING:DX:SINGLESPEED,THERMAL ZONE: SPACE 111 PTHP COOLING COIL,THERMAL ZONE: SPACE 111 PTHP MIXED AIR OUTLET,THERMAL ZONE: SPACE 111 PTHP COOLING COIL OUTLET,Air Nodes
 Component Set,77,ZONEHVAC:PACKAGEDTERMINALHEATPUMP,THERMAL ZONE: SPACE 201 PTHP,COIL:COOLING:DX:SINGLESPEED,THERMAL ZONE: SPACE 201 PTHP COOLING COIL,THERMAL ZONE: SPACE 201 PTHP MIXED AIR OUTLET,THERMAL ZONE: SPACE 201 PTHP COOLING COIL OUTLET,Air Nodes
 Component Set,78,ZONEHVAC:PACKAGEDTERMINALHEATPUMP,THERMAL ZONE: SPACE 202 PTHP,COIL:COOLING:DX:SINGLESPEED,THERMAL ZONE: SPACE 202 PTHP COOLING COIL,THERMAL ZONE: SPACE 202 PTHP MIXED AIR OUTLET,THERMAL ZONE: SPACE 202 PTHP COOLING COIL OUTLET,Air Nodes
 Component Set,79,ZONEHVAC:PACKAGEDTERMINALHEATPUMP,THERMAL ZONE: SPACE 203 PTHP,COIL:COOLING:DX:SINGLESPEED,THERMAL ZONE: SPACE 203 PTHP COOLING COIL,THERMAL ZONE: SPACE 203 PTHP MIXED AIR OUTLET,THERMAL ZONE: SPACE 203 PTHP COOLING COIL OUTLET,Air Nodes
 Component Set,80,ZONEHVAC:PACKAGEDTERMINALHEATPUMP,THERMAL ZONE: SPACE 204 PTHP,COIL:COOLING:DX:SINGLESPEED,THERMAL ZONE: SPACE 204 PTHP COOLING COIL,THERMAL ZONE: SPACE 204 PTHP MIXED AIR OUTLET,THERMAL ZONE: SPACE 204 PTHP COOLING COIL OUTLET,Air Nodes
 Component Set,81,ZONEHVAC:PACKAGEDTERMINALHEATPUMP,THERMAL ZONE: SPACE 205 PTHP,COIL:COOLING:DX:SINGLESPEED,THERMAL ZONE: SPACE 205 PTHP COOLING COIL,THERMAL ZONE: SPACE 205 PTHP MIXED AIR OUTLET,THERMAL ZONE: SPACE 205 PTHP COOLING COIL OUTLET,Air Nodes
 Component Set,82,ZONEHVAC:PACKAGEDTERMINALHEATPUMP,THERMAL ZONE: SPACE 206 PTHP,COIL:COOLING:DX:SINGLESPEED,THERMAL ZONE: SPACE 206 PTHP COOLING COIL,THERMAL ZONE: SPACE 206 PTHP MIXED AIR OUTLET,THERMAL ZONE: SPACE 206 PTHP COOLING COIL OUTLET,Air Nodes
 Component Set,83,ZONEHVAC:PACKAGEDTERMINALHEATPUMP,THERMAL ZONE: SPACE 207 PTHP,COIL:COOLING:DX:SINGLESPEED,THERMAL ZONE: SPACE 207 PTHP COOLING COIL,THERMAL ZONE: SPACE 207 PTHP MIXED AIR OUTLET,THERMAL ZONE: SPACE 207 PTHP COOLING COIL OUTLET,Air Nodes
 Component Set,84,ZONEHVAC:PACKAGEDTERMINALHEATPUMP,THERMAL ZONE: SPACE 208 PTHP,COIL:COOLING:DX:SINGLESPEED,THERMAL ZONE: SPACE 208 PTHP COOLING COIL,THERMAL ZONE: SPACE 208 PTHP MIXED AIR OUTLET,THERMAL ZONE: SPACE 208 PTHP COOLING COIL OUTLET,Air Nodes
 Component Set,85,ZONEHVAC:PACKAGEDTERMINALHEATPUMP,THERMAL ZONE: SPACE 209 PTHP,COIL:COOLING:DX:SINGLESPEED,THERMAL ZONE: SPACE 209 PTHP COOLING COIL,THERMAL ZONE: SPACE 209 PTHP MIXED AIR OUTLET,THERMAL ZONE: SPACE 209 PTHP COOLING COIL OUTLET,Air Nodes
 Component Set,86,ZONEHVAC:PACKAGEDTERMINALHEATPUMP,THERMAL ZONE: SPACE 210 PTHP,COIL:COOLING:DX:SINGLESPEED,THERMAL ZONE: SPACE 210 PTHP COOLING COIL,THERMAL ZONE: SPACE 210 PTHP MIXED AIR OUTLET,THERMAL ZONE: SPACE 210 PTHP COOLING COIL OUTLET,Air Nodes
 Component Set,87,ZONEHVAC:PACKAGEDTERMINALHEATPUMP,THERMAL ZONE: SPACE 211 PTHP,COIL:COOLING:DX:SINGLESPEED,THERMAL ZONE: SPACE 211 PTHP COOLING COIL,THERMAL ZONE: SPACE 211 PTHP MIXED AIR OUTLET,THERMAL ZONE: SPACE 211 PTHP COOLING COIL OUTLET,Air Nodes
 Component Set,88,ZONEHVAC:PACKAGEDTERMINALHEATPUMP,THERMAL ZONE: SPACE 301 PTHP,COIL:COOLING:DX:SINGLESPEED,THERMAL ZONE: SPACE 301 PTHP COOLING COIL,THERMAL ZONE: SPACE 301 PTHP MIXED AIR OUTLET,THERMAL ZONE: SPACE 301 PTHP COOLING COIL OUTLET,Air Nodes
 Component Set,89,ZONEHVAC:PACKAGEDTERMINALHEATPUMP,THERMAL ZONE: SPACE 302 PTHP,COIL:COOLING:DX:SINGLESPEED,THERMAL ZONE: SPACE 302 PTHP COOLING COIL,THERMAL ZONE: SPACE 302 PTHP MIXED AIR OUTLET,THERMAL ZONE: SPACE 302 PTHP COOLING COIL OUTLET,Air Nodes
 Component Set,90,ZONEHVAC:PACKAGEDTERMINALHEATPUMP,THERMAL ZONE: SPACE 303 PTHP,COIL:COOLING:DX:SINGLESPEED,THERMAL ZONE: SPACE 303 PTHP COOLING COIL,THERMAL ZONE: SPACE 303 PTHP MIXED AIR OUTLET,THERMAL ZONE: SPACE 303 PTHP COOLING COIL OUTLET,Air Nodes
 Component Set,91,ZONEHVAC:PACKAGEDTERMINALHEATPUMP,THERMAL ZONE: SPACE 304 PTHP,COIL:COOLING:DX:SINGLESPEED,THERMAL ZONE: SPACE 304 PTHP COOLING COIL,THERMAL ZONE: SPACE 304 PTHP MIXED AIR OUTLET,THERMAL ZONE: SPACE 304 PTHP COOLING COIL OUTLET,Air Nodes
 Component Set,92,ZONEHVAC:PACKAGEDTERMINALHEATPUMP,THERMAL ZONE: SPACE 305 PTHP,COIL:COOLING:DX:SINGLESPEED,THERMAL ZONE: SPACE 305 PTHP COOLING COIL,THERMAL ZONE: SPACE 305 PTHP MIXED AIR OUTLET,THERMAL ZONE: SPACE 305 PTHP COOLING COIL OUTLET,Air Nodes
 Component Set,93,ZONEHVAC:PACKAGEDTERMINALHEATPUMP,THERMAL ZONE: SPACE 101 PTHP,COIL:COOLING:DX:SINGLESPEED,THERMAL ZONE: SPACE 101 PTHP COOLING COIL,THERMAL ZONE: SPACE 101 PTHP MIXED AIR OUTLET,THERMAL ZONE: SPACE 101 PTHP COOLING COIL OUTLET,Air Nodes
 Component Set,94,ZONEHVAC:PACKAGEDTERMINALHEATPUMP,THERMAL ZONE: SPACE 306 PTHP,COIL:COOLING:DX:SINGLESPEED,THERMAL ZONE: SPACE 306 PTHP COOLING COIL,THERMAL ZONE: SPACE 306 PTHP MIXED AIR OUTLET,THERMAL ZONE: SPACE 306 PTHP COOLING COIL OUTLET,Air Nodes
 Component Set,95,ZONEHVAC:PACKAGEDTERMINALHEATPUMP,THERMAL ZONE: SPACE 307 PTHP,COIL:COOLING:DX:SINGLESPEED,THERMAL ZONE: SPACE 307 PTHP COOLING COIL,THERMAL ZONE: SPACE 307 PTHP MIXED AIR OUTLET,THERMAL ZONE: SPACE 307 PTHP COOLING COIL OUTLET,Air Nodes
 Component Set,96,ZONEHVAC:PACKAGEDTERMINALHEATPUMP,THERMAL ZONE: SPACE 308 PTHP,COIL:COOLING:DX:SINGLESPEED,THERMAL ZONE: SPACE 308 PTHP COOLING COIL,THERMAL ZONE: SPACE 308 PTHP MIXED AIR OUTLET,THERMAL ZONE: SPACE 308 PTHP COOLING COIL OUTLET,Air Nodes
 Component Set,97,ZONEHVAC:PACKAGEDTERMINALHEATPUMP,THERMAL ZONE: SPACE 309 PTHP,COIL:COOLING:DX:SINGLESPEED,THERMAL ZONE: SPACE 309 PTHP COOLING COIL,THERMAL ZONE: SPACE 309 PTHP MIXED AIR OUTLET,THERMAL ZONE: SPACE 309 PTHP COOLING COIL OUTLET,Air Nodes
 Component Set,98,ZONEHVAC:PACKAGEDTERMINALHEATPUMP,THERMAL ZONE: SPACE 310 PTHP,COIL:COOLING:DX:SINGLESPEED,THERMAL ZONE: SPACE 310 PTHP COOLING COIL,THERMAL ZONE: SPACE 310 PTHP MIXED AIR OUTLET,THERMAL ZONE: SPACE 310 PTHP COOLING COIL OUTLET,Air Nodes
 Component Set,99,ZONEHVAC:PACKAGEDTERMINALHEATPUMP,THERMAL ZONE: SPACE 311 PTHP,COIL:COOLING:DX:SINGLESPEED,THERMAL ZONE: SPACE 311 PTHP COOLING COIL,THERMAL ZONE: SPACE 311 PTHP MIXED AIR OUTLET,THERMAL ZONE: SPACE 311 PTHP COOLING COIL OUTLET,Air Nodes
 Component Set,100,ZONEHVAC:PACKAGEDTERMINALHEATPUMP,THERMAL ZONE: SPACE 102 PTHP,COIL:HEATING:DX:SINGLESPEED,THERMAL ZONE: SPACE 102 PTHP HEATING COIL,THERMAL ZONE: SPACE 102 PTHP COOLING COIL OUTLET,THERMAL ZONE: SPACE 102 PTHP HEATING COIL OUTLET,Air Nodes
 Component Set,101,ZONEHVAC:PACKAGEDTERMINALHEATPUMP,THERMAL ZONE: SPACE 103 PTHP,COIL:HEATING:DX:SINGLESPEED,THERMAL ZONE: SPACE 103 PTHP HEATING COIL,THERMAL ZONE: SPACE 103 PTHP COOLING COIL OUTLET,THERMAL ZONE: SPACE 103 PTHP HEATING COIL OUTLET,Air Nodes
 Component Set,102,ZONEHVAC:PACKAGEDTERMINALHEATPUMP,THERMAL ZONE: SPACE 104 PTHP,COIL:HEATING:DX:SINGLESPEED,THERMAL ZONE: SPACE 104 PTHP HEATING COIL,THERMAL ZONE: SPACE 104 PTHP COOLING COIL OUTLET,THERMAL ZONE: SPACE 104 PTHP HEATING COIL OUTLET,Air Nodes
 Component Set,103,ZONEHVAC:PACKAGEDTERMINALHEATPUMP,THERMAL ZONE: SPACE 105 PTHP,COIL:HEATING:DX:SINGLESPEED,THERMAL ZONE: SPACE 105 PTHP HEATING COIL,THERMAL ZONE: SPACE 105 PTHP COOLING COIL OUTLET,THERMAL ZONE: SPACE 105 PTHP HEATING COIL OUTLET,Air Nodes
 Component Set,104,ZONEHVAC:PACKAGEDTERMINALHEATPUMP,THERMAL ZONE: SPACE 106 PTHP,COIL:HEATING:DX:SINGLESPEED,THERMAL ZONE: SPACE 106 PTHP HEATING COIL,THERMAL ZONE: SPACE 106 PTHP COOLING COIL OUTLET,THERMAL ZONE: SPACE 106 PTHP HEATING COIL OUTLET,Air Nodes
 Component Set,105,ZONEHVAC:PACKAGEDTERMINALHEATPUMP,THERMAL ZONE: SPACE 107 PTHP,COIL:HEATING:DX:SINGLESPEED,THERMAL ZONE: SPACE 107 PTHP HEATING COIL,THERMAL ZONE: SPACE 107 PTHP COOLING COIL OUTLET,THERMAL ZONE: SPACE 107 PTHP HEATING COIL OUTLET,Air Nodes
 Component Set,106,ZONEHVAC:PACKAGEDTERMINALHEATPUMP,THERMAL ZONE: SPACE 108 PTHP,COIL:HEATING:DX:SINGLESPEED,THERMAL ZONE: SPACE 108 PTHP HEATING COIL,THERMAL ZONE: SPACE 108 PTHP COOLING COIL OUTLET,THERMAL ZONE: SPACE 108 PTHP HEATING COIL OUTLET,Air Nodes
 Component Set,107,ZONEHVAC:PACKAGEDTERMINALHEATPUMP,THERMAL ZONE: SPACE 109 PTHP,COIL:HEATING:DX:SINGLESPEED,THERMAL ZONE: SPACE 109 PTHP HEATING COIL,THERMAL ZONE: SPACE 109 PTHP COOLING COIL OUTLET,THERMAL ZONE: SPACE 109 PTHP HEATING COIL OUTLET,Air Nodes
 Component Set,108,ZONEHVAC:PACKAGEDTERMINALHEATPUMP,THERMAL ZONE: SPACE 110 PTHP,COIL:HEATING:DX:SINGLESPEED,THERMAL ZONE: SPACE 110 PTHP HEATING COIL,THERMAL ZONE: SPACE 110 PTHP COOLING COIL OUTLET,THERMAL ZONE: SPACE 110 PTHP HEATING COIL OUTLET,Air Nodes
 Component Set,109,ZONEHVAC:PACKAGEDTERMINALHEATPUMP,THERMAL ZONE: SPACE 111 PTHP,COIL:HEATING:DX:SINGLESPEED,THERMAL ZONE: SPACE 111 PTHP HEATING COIL,THERMAL ZONE: SPACE 111 PTHP COOLING COIL OUTLET,THERMAL ZONE: SPACE 111 PTHP HEATING COIL OUTLET,Air Nodes
 Component Set,110,ZONEHVAC:PACKAGEDTERMINALHEATPUMP,THERMAL ZONE: SPACE 201 PTHP,COIL:HEATING:DX:SINGLESPEED,THERMAL ZONE: SPACE 201 PTHP HEATING COIL,THERMAL ZONE: SPACE 201 PTHP COOLING COIL OUTLET,THERMAL ZONE: SPACE 201 PTHP HEATING COIL OUTLET,Air Nodes
 Component Set,111,ZONEHVAC:PACKAGEDTERMINALHEATPUMP,THERMAL ZONE: SPACE 202 PTHP,COIL:HEATING:DX:SINGLESPEED,THERMAL ZONE: SPACE 202 PTHP HEATING COIL,THERMAL ZONE: SPACE 202 PTHP COOLING COIL OUTLET,THERMAL ZONE: SPACE 202 PTHP HEATING COIL OUTLET,Air Nodes
 Component Set,112,ZONEHVAC:PACKAGEDTERMINALHEATPUMP,THERMAL ZONE: SPACE 203 PTHP,COIL:HEATING:DX:SINGLESPEED,THERMAL ZONE: SPACE 203 PTHP HEATING COIL,THERMAL ZONE: SPACE 203 PTHP COOLING COIL OUTLET,THERMAL ZONE: SPACE 203 PTHP HEATING COIL OUTLET,Air Nodes
 Component Set,113,ZONEHVAC:PACKAGEDTERMINALHEATPUMP,THERMAL ZONE: SPACE 204 PTHP,COIL:HEATING:DX:SINGLESPEED,THERMAL ZONE: SPACE 204 PTHP HEATING COIL,THERMAL ZONE: SPACE 204 PTHP COOLING COIL OUTLET,THERMAL ZONE: SPACE 204 PTHP HEATING COIL OUTLET,Air Nodes
 Component Set,114,ZONEHVAC:PACKAGEDTERMINALHEATPUMP,THERMAL ZONE: SPACE 205 PTHP,COIL:HEATING:DX:SINGLESPEED,THERMAL ZONE: SPACE 205 PTHP HEATING COIL,THERMAL ZONE: SPACE 205 PTHP COOLING COIL OUTLET,THERMAL ZONE: SPACE 205 PTHP HEATING COIL OUTLET,Air Nodes
 Component Set,115,ZONEHVAC:PACKAGEDTERMINALHEATPUMP,THERMAL ZONE: SPACE 206 PTHP,COIL:HEATING:DX:SINGLESPEED,THERMAL ZONE: SPACE 206 PTHP HEATING COIL,THERMAL ZONE: SPACE 206 PTHP COOLING COIL OUTLET,THERMAL ZONE: SPACE 206 PTHP HEATING COIL OUTLET,Air Nodes
 Component Set,116,ZONEHVAC:PACKAGEDTERMINALHEATPUMP,THERMAL ZONE: SPACE 207 PTHP,COIL:HEATING:DX:SINGLESPEED,THERMAL ZONE: SPACE 207 PTHP HEATING COIL,THERMAL ZONE: SPACE 207 PTHP COOLING COIL OUTLET,THERMAL ZONE: SPACE 207 PTHP HEATING COIL OUTLET,Air Nodes
 Component Set,117,ZONEHVAC:PACKAGEDTERMINALHEATPUMP,THERMAL ZONE: SPACE 208 PTHP,COIL:HEATING:DX:SINGLESPEED,THERMAL ZONE: SPACE 208 PTHP HEATING COIL,THERMAL ZONE: SPACE 208 PTHP COOLING COIL OUTLET,THERMAL ZONE: SPACE 208 PTHP HEATING COIL OUTLET,Air Nodes
 Component Set,118,ZONEHVAC:PACKAGEDTERMINALHEATPUMP,THERMAL ZONE: SPACE 209 PTHP,COIL:HEATING:DX:SINGLESPEED,THERMAL ZONE: SPACE 209 PTHP HEATING COIL,THERMAL ZONE: SPACE 209 PTHP COOLING COIL OUTLET,THERMAL ZONE: SPACE 209 PTHP HEATING COIL OUTLET,Air Nodes
 Component Set,119,ZONEHVAC:PACKAGEDTERMINALHEATPUMP,THERMAL ZONE: SPACE 210 PTHP,COIL:HEATING:DX:SINGLESPEED,THERMAL ZONE: SPACE 210 PTHP HEATING COIL,THERMAL ZONE: SPACE 210 PTHP COOLING COIL OUTLET,THERMAL ZONE: SPACE 210 PTHP HEATING COIL OUTLET,Air Nodes
 Component Set,120,ZONEHVAC:PACKAGEDTERMINALHEATPUMP,THERMAL ZONE: SPACE 211 PTHP,COIL:HEATING:DX:SINGLESPEED,THERMAL ZONE: SPACE 211 PTHP HEATING COIL,THERMAL ZONE: SPACE 211 PTHP COOLING COIL OUTLET,THERMAL ZONE: SPACE 211 PTHP HEATING COIL OUTLET,Air Nodes
 Component Set,121,ZONEHVAC:PACKAGEDTERMINALHEATPUMP,THERMAL ZONE: SPACE 301 PTHP,COIL:HEATING:DX:SINGLESPEED,THERMAL ZONE: SPACE 301 PTHP HEATING COIL,THERMAL ZONE: SPACE 301 PTHP COOLING COIL OUTLET,THERMAL ZONE: SPACE 301 PTHP HEATING COIL OUTLET,Air Nodes
 Component Set,122,ZONEHVAC:PACKAGEDTERMINALHEATPUMP,THERMAL ZONE: SPACE 302 PTHP,COIL:HEATING:DX:SINGLESPEED,THERMAL ZONE: SPACE 302 PTHP HEATING COIL,THERMAL ZONE: SPACE 302 PTHP COOLING COIL OUTLET,THERMAL ZONE: SPACE 302 PTHP HEATING COIL OUTLET,Air Nodes
 Component Set,123,ZONEHVAC:PACKAGEDTERMINALHEATPUMP,THERMAL ZONE: SPACE 303 PTHP,COIL:HEATING:DX:SINGLESPEED,THERMAL ZONE: SPACE 303 PTHP HEATING COIL,THERMAL ZONE: SPACE 303 PTHP COOLING COIL OUTLET,THERMAL ZONE: SPACE 303 PTHP HEATING COIL OUTLET,Air Nodes
 Component Set,124,ZONEHVAC:PACKAGEDTERMINALHEATPUMP,THERMAL ZONE: SPACE 304 PTHP,COIL:HEATING:DX:SINGLESPEED,THERMAL ZONE: SPACE 304 PTHP HEATING COIL,THERMAL ZONE: SPACE 304 PTHP COOLING COIL OUTLET,THERMAL ZONE: SPACE 304 PTHP HEATING COIL OUTLET,Air Nodes
 Component Set,125,ZONEHVAC:PACKAGEDTERMINALHEATPUMP,THERMAL ZONE: SPACE 305 PTHP,COIL:HEATING:DX:SINGLESPEED,THERMAL ZONE: SPACE 305 PTHP HEATING COIL,THERMAL ZONE: SPACE 305 PTHP COOLING COIL OUTLET,THERMAL ZONE: SPACE 305 PTHP HEATING COIL OUTLET,Air Nodes
 Component Set,126,ZONEHVAC:PACKAGEDTERMINALHEATPUMP,THERMAL ZONE: SPACE 101 PTHP,COIL:HEATING:DX:SINGLESPEED,THERMAL ZONE: SPACE 101 PTHP HEATING COIL,THERMAL ZONE: SPACE 101 PTHP COOLING COIL OUTLET,THERMAL ZONE: SPACE 101 PTHP HEATING COIL OUTLET,Air Nodes
 Component Set,127,ZONEHVAC:PACKAGEDTERMINALHEATPUMP,THERMAL ZONE: SPACE 306 PTHP,COIL:HEATING:DX:SINGLESPEED,THERMAL ZONE: SPACE 306 PTHP HEATING COIL,THERMAL ZONE: SPACE 306 PTHP COOLING COIL OUTLET,THERMAL ZONE: SPACE 306 PTHP HEATING COIL OUTLET,Air Nodes
 Component Set,128,ZONEHVAC:PACKAGEDTERMINALHEATPUMP,THERMAL ZONE: SPACE 307 PTHP,COIL:HEATING:DX:SINGLESPEED,THERMAL ZONE: SPACE 307 PTHP HEATING COIL,THERMAL ZONE: SPACE 307 PTHP COOLING COIL OUTLET,THERMAL ZONE: SPACE 307 PTHP HEATING COIL OUTLET,Air Nodes
 Component Set,129,ZONEHVAC:PACKAGEDTERMINALHEATPUMP,THERMAL ZONE: SPACE 308 PTHP,COIL:HEATING:DX:SINGLESPEED,THERMAL ZONE: SPACE 308 PTHP HEATING COIL,THERMAL ZONE: SPACE 308 PTHP COOLING COIL OUTLET,THERMAL ZONE: SPACE 308 PTHP HEATING COIL OUTLET,Air Nodes
 Component Set,130,ZONEHVAC:PACKAGEDTERMINALHEATPUMP,THERMAL ZONE: SPACE 309 PTHP,COIL:HEATING:DX:SINGLESPEED,THERMAL ZONE: SPACE 309 PTHP HEATING COIL,THERMAL ZONE: SPACE 309 PTHP COOLING COIL OUTLET,THERMAL ZONE: SPACE 309 PTHP HEATING COIL OUTLET,Air Nodes
 Component Set,131,ZONEHVAC:PACKAGEDTERMINALHEATPUMP,THERMAL ZONE: SPACE 310 PTHP,COIL:HEATING:DX:SINGLESPEED,THERMAL ZONE: SPACE 310 PTHP HEATING COIL,THERMAL ZONE: SPACE 310 PTHP COOLING COIL OUTLET,THERMAL ZONE: SPACE 310 PTHP HEATING COIL OUTLET,Air Nodes
 Component Set,132,ZONEHVAC:PACKAGEDTERMINALHEATPUMP,THERMAL ZONE: SPACE 311 PTHP,COIL:HEATING:DX:SINGLESPEED,THERMAL ZONE: SPACE 311 PTHP HEATING COIL,THERMAL ZONE: SPACE 311 PTHP COOLING COIL OUTLET,THERMAL ZONE: SPACE 311 PTHP HEATING COIL OUTLET,Air Nodes
 Component Set,133,ZONEHVAC:PACKAGEDTERMINALHEATPUMP,THERMAL ZONE: SPACE 102 PTHP,COIL:HEATING:ELECTRIC,THERMAL ZONE: SPACE 102 PTHP SUPP HEATING COIL,THERMAL ZONE: SPACE 102 PTHP SUPPLY FAN OUTLET,THERMAL ZONE: SPACE 102 PTHP SUPPLY INLET,Air Nodes
 Component Set,134,ZONEHVAC:PACKAGEDTERMINALHEATPUMP,THERMAL ZONE: SPACE 103 PTHP,COIL:HEATING:ELECTRIC,THERMAL ZONE: SPACE 103 PTHP SUPP HEATING COIL,THERMAL ZONE: SPACE 103 PTHP SUPPLY FAN OUTLET,THERMAL ZONE: SPACE 103 PTHP SUPPLY INLET,Air Nodes
 Component Set,135,ZONEHVAC:PACKAGEDTERMINALHEATPUMP,THERMAL ZONE: SPACE 104 PTHP,COIL:HEATING:ELECTRIC,THERMAL ZONE: SPACE 104 PTHP SUPP HEATING COIL,THERMAL ZONE: SPACE 104 PTHP SUPPLY FAN OUTLET,THERMAL ZONE: SPACE 104 PTHP SUPPLY INLET,Air Nodes
 Component Set,136,ZONEHVAC:PACKAGEDTERMINALHEATPUMP,THERMAL ZONE: SPACE 105 PTHP,COIL:HEATING:ELECTRIC,THERMAL ZONE: SPACE 105 PTHP SUPP HEATING COIL,THERMAL ZONE: SPACE 105 PTHP SUPPLY FAN OUTLET,THERMAL ZONE: SPACE 105 PTHP SUPPLY INLET,Air Nodes
 Component Set,137,ZONEHVAC:PACKAGEDTERMINALHEATPUMP,THERMAL ZONE: SPACE 106 PTHP,COIL:HEATING:ELECTRIC,THERMAL ZONE: SPACE 106 PTHP SUPP HEATING COIL,THERMAL ZONE: SPACE 106 PTHP SUPPLY FAN OUTLET,THERMAL ZONE: SPACE 106 PTHP SUPPLY INLET,Air Nodes
 Component Set,138,ZONEHVAC:PACKAGEDTERMINALHEATPUMP,THERMAL ZONE: SPACE 107 PTHP,COIL:HEATING:ELECTRIC,THERMAL ZONE: SPACE 107 PTHP SUPP HEATING COIL,THERMAL ZONE: SPACE 107 PTHP SUPPLY FAN OUTLET,THERMAL ZONE: SPACE 107 PTHP SUPPLY INLET,Air Nodes
 Component Set,139,ZONEHVAC:PACKAGEDTERMINALHEATPUMP,THERMAL ZONE: SPACE 108 PTHP,COIL:HEATING:ELECTRIC,THERMAL ZONE: SPACE 108 PTHP SUPP HEATING COIL,THERMAL ZONE: SPACE 108 PTHP SUPPLY FAN OUTLET,THERMAL ZONE: SPACE 108 PTHP SUPPLY INLET,Air Nodes
 Component Set,140,ZONEHVAC:PACKAGEDTERMINALHEATPUMP,THERMAL ZONE: SPACE 109 PTHP,COIL:HEATING:ELECTRIC,THERMAL ZONE: SPACE 109 PTHP SUPP HEATING COIL,THERMAL ZONE: SPACE 109 PTHP SUPPLY FAN OUTLET,THERMAL ZONE: SPACE 109 PTHP SUPPLY INLET,Air Nodes
 Component Set,141,ZONEHVAC:PACKAGEDTERMINALHEATPUMP,THERMAL ZONE: SPACE 110 PTHP,COIL:HEATING:ELECTRIC,THERMAL ZONE: SPACE 110 PTHP SUPP HEATING COIL,THERMAL ZONE: SPACE 110 PTHP SUPPLY FAN OUTLET,THERMAL ZONE: SPACE 110 PTHP SUPPLY INLET,Air Nodes
 Component Set,142,ZONEHVAC:PACKAGEDTERMINALHEATPUMP,THERMAL ZONE: SPACE 111 PTHP,COIL:HEATING:ELECTRIC,THERMAL ZONE: SPACE 111 PTHP SUPP HEATING COIL,THERMAL ZONE: SPACE 111 PTHP SUPPLY FAN OUTLET,THERMAL ZONE: SPACE 111 PTHP SUPPLY INLET,Air Nodes
 Component Set,143,ZONEHVAC:PACKAGEDTERMINALHEATPUMP,THERMAL ZONE: SPACE 201 PTHP,COIL:HEATING:ELECTRIC,THERMAL ZONE: SPACE 201 PTHP SUPP HEATING COIL,THERMAL ZONE: SPACE 201 PTHP SUPPLY FAN OUTLET,THERMAL ZONE: SPACE 201 PTHP SUPPLY INLET,Air Nodes
 Component Set,144,ZONEHVAC:PACKAGEDTERMINALHEATPUMP,THERMAL ZONE: SPACE 202 PTHP,COIL:HEATING:ELECTRIC,THERMAL ZONE: SPACE 202 PTHP SUPP HEATING COIL,THERMAL ZONE: SPACE 202 PTHP SUPPLY FAN OUTLET,THERMAL ZONE: SPACE 202 PTHP SUPPLY INLET,Air Nodes
 Component Set,145,ZONEHVAC:PACKAGEDTERMINALHEATPUMP,THERMAL ZONE: SPACE 203 PTHP,COIL:HEATING:ELECTRIC,THERMAL ZONE: SPACE 203 PTHP SUPP HEATING COIL,THERMAL ZONE: SPACE 203 PTHP SUPPLY FAN OUTLET,THERMAL ZONE: SPACE 203 PTHP SUPPLY INLET,Air Nodes
 Component Set,146,ZONEHVAC:PACKAGEDTERMINALHEATPUMP,THERMAL ZONE: SPACE 204 PTHP,COIL:HEATING:ELECTRIC,THERMAL ZONE: SPACE 204 PTHP SUPP HEATING COIL,THERMAL ZONE: SPACE 204 PTHP SUPPLY FAN OUTLET,THERMAL ZONE: SPACE 204 PTHP SUPPLY INLET,Air Nodes
 Component Set,147,ZONEHVAC:PACKAGEDTERMINALHEATPUMP,THERMAL ZONE: SPACE 205 PTHP,COIL:HEATING:ELECTRIC,THERMAL ZONE: SPACE 205 PTHP SUPP HEATING COIL,THERMAL ZONE: SPACE 205 PTHP SUPPLY FAN OUTLET,THERMAL ZONE: SPACE 205 PTHP SUPPLY INLET,Air Nodes
 Component Set,148,ZONEHVAC:PACKAGEDTERMINALHEATPUMP,THERMAL ZONE: SPACE 206 PTHP,COIL:HEATING:ELECTRIC,THERMAL ZONE: SPACE 206 PTHP SUPP HEATING COIL,THERMAL ZONE: SPACE 206 PTHP SUPPLY FAN OUTLET,THERMAL ZONE: SPACE 206 PTHP SUPPLY INLET,Air Nodes
 Component Set,149,ZONEHVAC:PACKAGEDTERMINALHEATPUMP,THERMAL ZONE: SPACE 207 PTHP,COIL:HEATING:ELECTRIC,THERMAL ZONE: SPACE 207 PTHP SUPP HEATING COIL,THERMAL ZONE: SPACE 207 PTHP SUPPLY FAN OUTLET,THERMAL ZONE: SPACE 207 PTHP SUPPLY INLET,Air Nodes
 Component Set,150,ZONEHVAC:PACKAGEDTERMINALHEATPUMP,THERMAL ZONE: SPACE 208 PTHP,COIL:HEATING:ELECTRIC,THERMAL ZONE: SPACE 208 PTHP SUPP HEATING COIL,THERMAL ZONE: SPACE 208 PTHP SUPPLY FAN OUTLET,THERMAL ZONE: SPACE 208 PTHP SUPPLY INLET,Air Nodes
 Component Set,151,ZONEHVAC:PACKAGEDTERMINALHEATPUMP,THERMAL ZONE: SPACE 209 PTHP,COIL:HEATING:ELECTRIC,THERMAL ZONE: SPACE 209 PTHP SUPP HEATING COIL,THERMAL ZONE: SPACE 209 PTHP SUPPLY FAN OUTLET,THERMAL ZONE: SPACE 209 PTHP SUPPLY INLET,Air Nodes
 Component Set,152,ZONEHVAC:PACKAGEDTERMINALHEATPUMP,THERMAL ZONE: SPACE 210 PTHP,COIL:HEATING:ELECTRIC,THERMAL ZONE: SPACE 210 PTHP SUPP HEATING COIL,THERMAL ZONE: SPACE 210 PTHP SUPPLY FAN OUTLET,THERMAL ZONE: SPACE 210 PTHP SUPPLY INLET,Air Nodes
 Component Set,153,ZONEHVAC:PACKAGEDTERMINALHEATPUMP,THERMAL ZONE: SPACE 211 PTHP,COIL:HEATING:ELECTRIC,THERMAL ZONE: SPACE 211 PTHP SUPP HEATING COIL,THERMAL ZONE: SPACE 211 PTHP SUPPLY FAN OUTLET,THERMAL ZONE: SPACE 211 PTHP SUPPLY INLET,Air Nodes
 Component Set,154,ZONEHVAC:PACKAGEDTERMINALHEATPUMP,THERMAL ZONE: SPACE 301 PTHP,COIL:HEATING:ELECTRIC,THERMAL ZONE: SPACE 301 PTHP SUPP HEATING COIL,THERMAL ZONE: SPACE 301 PTHP SUPPLY FAN OUTLET,THERMAL ZONE: SPACE 301 PTHP SUPPLY INLET,Air Nodes
 Component Set,155,ZONEHVAC:PACKAGEDTERMINALHEATPUMP,THERMAL ZONE: SPACE 302 PTHP,COIL:HEATING:ELECTRIC,THERMAL ZONE: SPACE 302 PTHP SUPP HEATING COIL,THERMAL ZONE: SPACE 302 PTHP SUPPLY FAN OUTLET,THERMAL ZONE: SPACE 302 PTHP SUPPLY INLET,Air Nodes
 Component Set,156,ZONEHVAC:PACKAGEDTERMINALHEATPUMP,THERMAL ZONE: SPACE 303 PTHP,COIL:HEATING:ELECTRIC,THERMAL ZONE: SPACE 303 PTHP SUPP HEATING COIL,THERMAL ZONE: SPACE 303 PTHP SUPPLY FAN OUTLET,THERMAL ZONE: SPACE 303 PTHP SUPPLY INLET,Air Nodes
 Component Set,157,ZONEHVAC:PACKAGEDTERMINALHEATPUMP,THERMAL ZONE: SPACE 304 PTHP,COIL:HEATING:ELECTRIC,THERMAL ZONE: SPACE 304 PTHP SUPP HEATING COIL,THERMAL ZONE: SPACE 304 PTHP SUPPLY FAN OUTLET,THERMAL ZONE: SPACE 304 PTHP SUPPLY INLET,Air Nodes
 Component Set,158,ZONEHVAC:PACKAGEDTERMINALHEATPUMP,THERMAL ZONE: SPACE 305 PTHP,COIL:HEATING:ELECTRIC,THERMAL ZONE: SPACE 305 PTHP SUPP HEATING COIL,THERMAL ZONE: SPACE 305 PTHP SUPPLY FAN OUTLET,THERMAL ZONE: SPACE 305 PTHP SUPPLY INLET,Air Nodes
 Component Set,159,ZONEHVAC:PACKAGEDTERMINALHEATPUMP,THERMAL ZONE: SPACE 101 PTHP,COIL:HEATING:ELECTRIC,THERMAL ZONE: SPACE 101 PTHP SUPP HEATING COIL,THERMAL ZONE: SPACE 101 PTHP SUPPLY FAN OUTLET,THERMAL ZONE: SPACE 101 PTHP SUPPLY INLET,Air Nodes
 Component Set,160,ZONEHVAC:PACKAGEDTERMINALHEATPUMP,THERMAL ZONE: SPACE 306 PTHP,COIL:HEATING:ELECTRIC,THERMAL ZONE: SPACE 306 PTHP SUPP HEATING COIL,THERMAL ZONE: SPACE 306 PTHP SUPPLY FAN OUTLET,THERMAL ZONE: SPACE 306 PTHP SUPPLY INLET,Air Nodes
 Component Set,161,ZONEHVAC:PACKAGEDTERMINALHEATPUMP,THERMAL ZONE: SPACE 307 PTHP,COIL:HEATING:ELECTRIC,THERMAL ZONE: SPACE 307 PTHP SUPP HEATING COIL,THERMAL ZONE: SPACE 307 PTHP SUPPLY FAN OUTLET,THERMAL ZONE: SPACE 307 PTHP SUPPLY INLET,Air Nodes
 Component Set,162,ZONEHVAC:PACKAGEDTERMINALHEATPUMP,THERMAL ZONE: SPACE 308 PTHP,COIL:HEATING:ELECTRIC,THERMAL ZONE: SPACE 308 PTHP SUPP HEATING COIL,THERMAL ZONE: SPACE 308 PTHP SUPPLY FAN OUTLET,THERMAL ZONE: SPACE 308 PTHP SUPPLY INLET,Air Nodes
 Component Set,163,ZONEHVAC:PACKAGEDTERMINALHEATPUMP,THERMAL ZONE: SPACE 309 PTHP,COIL:HEATING:ELECTRIC,THERMAL ZONE: SPACE 309 PTHP SUPP HEATING COIL,THERMAL ZONE: SPACE 309 PTHP SUPPLY FAN OUTLET,THERMAL ZONE: SPACE 309 PTHP SUPPLY INLET,Air Nodes
 Component Set,164,ZONEHVAC:PACKAGEDTERMINALHEATPUMP,THERMAL ZONE: SPACE 310 PTHP,COIL:HEATING:ELECTRIC,THERMAL ZONE: SPACE 310 PTHP SUPP HEATING COIL,THERMAL ZONE: SPACE 310 PTHP SUPPLY FAN OUTLET,THERMAL ZONE: SPACE 310 PTHP SUPPLY INLET,Air Nodes
 Component Set,165,ZONEHVAC:PACKAGEDTERMINALHEATPUMP,THERMAL ZONE: SPACE 311 PTHP,COIL:HEATING:ELECTRIC,THERMAL ZONE: SPACE 311 PTHP SUPP HEATING COIL,THERMAL ZONE: SPACE 311 PTHP SUPPLY FAN OUTLET,THERMAL ZONE: SPACE 311 PTHP SUPPLY INLET,Air Nodes
! ===============================================================
! <# Plant Loops>,<Number of Plant Loops>
 #Plant Loops,0
! <Plant Loop>,<Plant Loop Name>,<Loop Type>,<Inlet Node Name>,<Outlet Node Name>,<Branch List>,<Connector List>
! <Plant Loop Connector>,<Connector Type>,<Connector Name>,<Loop Name>,<Loop Type>,<Number of Inlets/Outlets>
! <Plant Loop Connector Branches>,<Connector Node Count>,<Connector Type>,<Connector Name>,<Inlet Branch>,<Outlet Branch>,<Loop Name>,<Loop Type>
! <Plant Loop Connector Nodes>,<Connector Node Count>,<Connector Type>,<Connector Name>,<Inlet Node>,<Outlet Node>,<Loop Name>,<Loop Type>
! <Plant Loop Supply Connection>,<Plant Loop Name>,<Supply Side Outlet Node Name>,<Demand Side Inlet Node Name>
! <Plant Loop Return Connection>,<Plant Loop Name>,<Demand Side Outlet Node Name>,<Supply Side Inlet Node Name>
! ===============================================================
! <# Condenser Loops>,<Number of Condenser Loops>
 #Condenser Loops,0
! <Condenser Loop>,<Condenser Loop Name>,<Loop Type>,<Inlet Node Name>,<Outlet Node Name>,<Branch List>,<Connector List>
! <Condenser Loop Connector>,<Connector Type>,<Connector Name>,<Loop Name>,<Loop Type>,<Number of Inlets/Outlets>
! <Condenser Loop Connector Branches>,<Connector Node Count>,<Connector Type>,<Connector Name>,<Inlet Branch>,<Outlet Branch>,<Loop Name>,<Loop Type>
! <Condenser Loop Connector Nodes>,<Connector Node Count>,<Connector Type>,<Connector Name>,<Inlet Node>,<Outlet Node>,<Loop Name>,<Loop Type>
! <Condenser Loop Supply Connection>,<Condenser Loop Name>,<Supply Side Outlet Node Name>,<Demand Side Inlet Node Name>
! <Condenser Loop Return Connection>,<Condenser Loop Name>,<Demand Side Outlet Node Name>,<Supply Side Inlet Node Name>
! ===============================================================
! <# Controlled Zones>,<Number of Controlled Zones>
 #Controlled Zones,33
! <Controlled Zone>,<Controlled Zone Name>,<Equip List Name>,<Control List Name>,<Zone Node Name>,<Return Air Node Name>,<# Inlet Nodes>,<# Exhaust Nodes>
! <Controlled Zone Inlet>,<Inlet Node Count>,<Controlled Zone Name>,<Supply Air Inlet Node Name>,<SD Sys:Cooling/Heating [DD:Cooling] Inlet Node Name>,<DD Sys:Heating Inlet Node Name>
[...]
 Non-Parent Node Connection,THERMAL ZONE: SPACE 311 PTHP MIXED AIR OUTLET,COIL:COOLING:DX:SINGLESPEED,THERMAL ZONE: SPACE 311 PTHP COOLING COIL,Inlet,1
 Non-Parent Node Connection,THERMAL ZONE: SPACE 311 PTHP COOLING COIL OUTLET,COIL:COOLING:DX:SINGLESPEED,THERMAL ZONE: SPACE 311 PTHP COOLING COIL,Outlet,1
 Non-Parent Node Connection,THERMAL ZONE: SPACE 311 PTHP COOLING COIL CONDENSER INLET,COIL:COOLING:DX:SINGLESPEED,THERMAL ZONE: SPACE 311 PTHP COOLING COIL,OutsideAirReference,1
 Non-Parent Node Connection,THERMAL ZONE: SPACE 102 PTHP COOLING COIL OUTLET,COIL:HEATING:DX:SINGLESPEED,THERMAL ZONE: SPACE 102 PTHP HEATING COIL,Inlet,1
 Non-Parent Node Connection,THERMAL ZONE: SPACE 102 PTHP HEATING COIL OUTLET,COIL:HEATING:DX:SINGLESPEED,THERMAL ZONE: SPACE 102 PTHP HEATING COIL,Outlet,1
 Non-Parent Node Connection,THERMAL ZONE: SPACE 103 PTHP COOLING COIL OUTLET,COIL:HEATING:DX:SINGLESPEED,THERMAL ZONE: SPACE 103 PTHP HEATING COIL,Inlet,1
 Non-Parent Node Connection,THERMAL ZONE: SPACE 103 PTHP HEATING COIL OUTLET,COIL:HEATING:DX:SINGLESPEED,THERMAL ZONE: SPACE 103 PTHP HEATING COIL,Outlet,1
 Non-Parent Node Connection,THERMAL ZONE: SPACE 104 PTHP COOLING COIL OUTLET,COIL:HEATING:DX:SINGLESPEED,THERMAL ZONE: SPACE 104 PTHP HEATING COIL,Inlet,1
 Non-Parent Node Connection,THERMAL ZONE: SPACE 104 PTHP HEATING COIL OUTLET,COIL:HEATING:DX:SINGLESPEED,THERMAL ZONE: SPACE 104 PTHP HEATING COIL,Outlet,1
 Non-Parent Node Connection,THERMAL ZONE: SPACE 105 PTHP COOLING COIL OUTLET,COIL:HEATING:DX:SINGLESPEED,THERMAL ZONE: SPACE 105 PTHP HEATING COIL,Inlet,1
 Non-Parent Node Connection,THERMAL ZONE: SPACE 105 PTHP HEATING COIL OUTLET,COIL:HEATING:DX:SINGLESPEED,THERMAL ZONE: SPACE 105 PTHP HEATING COIL,Outlet,1
 Non-Parent Node Connection,THERMAL ZONE: SPACE 106 PTHP COOLING COIL OUTLET,COIL:HEATING:DX:SINGLESPEED,THERMAL ZONE: SPACE 106 PTHP HEATING COIL,Inlet,1
 Non-Parent Node Connection,THERMAL ZONE: SPACE 106 PTHP HEATING COIL OUTLET,COIL:HEATING:DX:SINGLESPEED,THERMAL ZONE: SPACE 106 PTHP HEATING COIL,Outlet,1
 Non-Parent Node Connection,THERMAL ZONE: SPACE 107 PTHP COOLING COIL OUTLET,COIL:HEATING:DX:SINGLESPEED,THERMAL ZONE: SPACE 107 PTHP HEATING COIL,Inlet,1
 Non-Parent Node Connection,THERMAL ZONE: SPACE 107 PTHP HEATING COIL OUTLET,COIL:HEATING:DX:SINGLESPEED,THERMAL ZONE: SPACE 107 PTHP HEATING COIL,Outlet,1
 Non-Parent Node Connection,THERMAL ZONE: SPACE 108 PTHP COOLING COIL OUTLET,COIL:HEATING:DX:SINGLESPEED,THERMAL ZONE: SPACE 108 PTHP HEATING COIL,Inlet,1
 Non-Parent Node Connection,THERMAL ZONE: SPACE 108 PTHP HEATING COIL OUTLET,COIL:HEATING:DX:SINGLESPEED,THERMAL ZONE: SPACE 108 PTHP HEATING COIL,Outlet,1
 Non-Parent Node Connection,THERMAL ZONE: SPACE 109 PTHP COOLING COIL OUTLET,COIL:HEATING:DX:SINGLESPEED,THERMAL ZONE: SPACE 109 PTHP HEATING COIL,Inlet,1
 Non-Parent Node Connection,THERMAL ZONE: SPACE 109 PTHP HEATING COIL OUTLET,COIL:HEATING:DX:SINGLESPEED,THERMAL ZONE: SPACE 109 PTHP HEATING COIL,Outlet,1
 Non-Parent Node Connection,THERMAL ZONE: SPACE 110 PTHP COOLING COIL OUTLET,COIL:HEATING:DX:SINGLESPEED,THERMAL ZONE: SPACE 110 PTHP HEATING COIL,Inlet,1
 Non-Parent Node Connection,THERMAL ZONE: SPACE 110 PTHP HEATING COIL OUTLET,COIL:HEATING:DX:SINGLESPEED,THERMAL ZONE: SPACE 110 PTHP HEATING COIL,Outlet,1
 Non-Parent Node Connection,THERMAL ZONE: SPACE 111 PTHP COOLING COIL OUTLET,COIL:HEATING:DX:SINGLESPEED,THERMAL ZONE: SPACE 111 PTHP HEATING COIL,Inlet,1
 Non-Parent Node Connection,THERMAL ZONE: SPACE 111 PTHP HEATING COIL OUTLET,COIL:HEATING:DX:SINGLESPEED,THERMAL ZONE: SPACE 111 PTHP HEATING COIL,Outlet,1
 Non-Parent Node Connection,THERMAL ZONE: SPACE 201 PTHP COOLING COIL OUTLET,COIL:HEATING:DX:SINGLESPEED,THERMAL ZONE: SPACE 201 PTHP HEATING COIL,Inlet,1
 Non-Parent Node Connection,THERMAL ZONE: SPACE 201 PTHP HEATING COIL OUTLET,COIL:HEATING:DX:SINGLESPEED,THERMAL ZONE: SPACE 201 PTHP HEATING COIL,Outlet,1
 Non-Parent Node Connection,THERMAL ZONE: SPACE 202 PTHP COOLING COIL OUTLET,COIL:HEATING:DX:SINGLESPEED,THERMAL ZONE: SPACE 202 PTHP HEATING COIL,Inlet,1
 Non-Parent Node Connection,THERMAL ZONE: SPACE 202 PTHP HEATING COIL OUTLET,COIL:HEATING:DX:SINGLESPEED,THERMAL ZONE: SPACE 202 PTHP HEATING COIL,Outlet,1
 Non-Parent Node Connection,THERMAL ZONE: SPACE 203 PTHP COOLING COIL OUTLET,COIL:HEATING:DX:SINGLESPEED,THERMAL ZONE: SPACE 203 PTHP HEATING COIL,Inlet,1
 Non-Parent Node Connection,THERMAL ZONE: SPACE 203 PTHP HEATING COIL OUTLET,COIL:HEATING:DX:SINGLESPEED,THERMAL ZONE: SPACE 203 PTHP HEATING COIL,Outlet,1
 Non-Parent Node Connection,THERMAL ZONE: SPACE 204 PTHP COOLING COIL OUTLET,COIL:HEATING:DX:SINGLESPEED,THERMAL ZONE: SPACE 204 PTHP HEATING COIL,Inlet,1
 Non-Parent Node Connection,THERMAL ZONE: SPACE 204 PTHP HEATING COIL OUTLET,COIL:HEATING:DX:SINGLESPEED,THERMAL ZONE: SPACE 204 PTHP HEATING COIL,Outlet,1
 Non-Parent Node Connection,THERMAL ZONE: SPACE 205 PTHP COOLING COIL OUTLET,COIL:HEATING:DX:SINGLESPEED,THERMAL ZONE: SPACE 205 PTHP HEATING COIL,Inlet,1
 Non-Parent Node Connection,THERMAL ZONE: SPACE 205 PTHP HEATING COIL OUTLET,COIL:HEATING:DX:SINGLESPEED,THERMAL ZONE: SPACE 205 PTHP HEATING COIL,Outlet,1
 Non-Parent Node Connection,THERMAL ZONE: SPACE 206 PTHP COOLING COIL OUTLET,COIL:HEATING:DX:SINGLESPEED,THERMAL ZONE: SPACE 206 PTHP HEATING COIL,Inlet,1
 Non-Parent Node Connection,THERMAL ZONE: SPACE 206 PTHP HEATING COIL OUTLET,COIL:HEATING:DX:SINGLESPEED,THERMAL ZONE: SPACE 206 PTHP HEATING COIL,Outlet,1
 Non-Parent Node Connection,THERMAL ZONE: SPACE 207 PTHP COOLING COIL OUTLET,COIL:HEATING:DX:SINGLESPEED,THERMAL ZONE: SPACE 207 PTHP HEATING COIL,Inlet,1
 Non-Parent Node Connection,THERMAL ZONE: SPACE 207 PTHP HEATING COIL OUTLET,COIL:HEATING:DX:SINGLESPEED,THERMAL ZONE: SPACE 207 PTHP HEATING COIL,Outlet,1
 Non-Parent Node Connection,THERMAL ZONE: SPACE 208 PTHP COOLING COIL OUTLET,COIL:HEATING:DX:SINGLESPEED,THERMAL ZONE: SPACE 208 PTHP HEATING COIL,Inlet,1
 Non-Parent Node Connection,THERMAL ZONE: SPACE 208 PTHP HEATING COIL OUTLET,COIL:HEATING:DX:SINGLESPEED,THERMAL ZONE: SPACE 208 PTHP HEATING COIL,Outlet,1
 Non-Parent Node Connection,THERMAL ZONE: SPACE 209 PTHP COOLING COIL OUTLET,COIL:HEATING:DX:SINGLESPEED,THERMAL ZONE: SPACE 209 PTHP HEATING COIL,Inlet,1
 Non-Parent Node Connection,THERMAL ZONE: SPACE 209 PTHP HEATING COIL OUTLET,COIL:HEATING:DX:SINGLESPEED,THERMAL ZONE: SPACE 209 PTHP HEATING COIL,Outlet,1
 Non-Parent Node Connection,THERMAL ZONE: SPACE 210 PTHP COOLING COIL OUTLET,COIL:HEATING:DX:SINGLESPEED,THERMAL ZONE: SPACE 210 PTHP HEATING COIL,Inlet,1
 Non-Parent Node Connection,THERMAL ZONE: SPACE 210 PTHP HEATING COIL OUTLET,COIL:HEATING:DX:SINGLESPEED,THERMAL ZONE: SPACE 210 PTHP HEATING COIL,Outlet,1
 Non-Parent Node Connection,THERMAL ZONE: SPACE 211 PTHP COOLING COIL OUTLET,COIL:HEATING:DX:SINGLESPEED,THERMAL ZONE: SPACE 211 PTHP HEATING COIL,Inlet,1
 Non-Parent Node Connection,THERMAL ZONE: SPACE 211 PTHP HEATING COIL OUTLET,COIL:HEATING:DX:SINGLESPEED,THERMAL ZONE: SPACE 211 PTHP HEATING COIL,Outlet,1
 Non-Parent Node Connection,THERMAL ZONE: SPACE 301 PTHP COOLING COIL OUTLET,COIL:HEATING:DX:SINGLESPEED,THERMAL ZONE: SPACE 301 PTHP HEATING COIL,Inlet,1
 Non-Parent Node Connection,THERMAL ZONE: SPACE 301 PTHP HEATING COIL OUTLET,COIL:HEATING:DX:SINGLESPEED,THERMAL ZONE: SPACE 301 PTHP HEATING COIL,Outlet,1
 Non-Parent Node Connection,THERMAL ZONE: SPACE 302 PTHP COOLING COIL OUTLET,COIL:HEATING:DX:SINGLESPEED,THERMAL ZONE: SPACE 302 PTHP HEATING COIL,Inlet,1
 Non-Parent Node Connection,THERMAL ZONE: SPACE 302 PTHP HEATING COIL OUTLET,COIL:HEATING:DX:SINGLESPEED,THERMAL ZONE: SPACE 302 PTHP HEATING COIL,Outlet,1
 Non-Parent Node Connection,THERMAL ZONE: SPACE 303 PTHP COOLING COIL OUTLET,COIL:HEATING:DX:SINGLESPEED,THERMAL ZONE: SPACE 303 PTHP HEATING COIL,Inlet,1
 Non-Parent Node Connection,THERMAL ZONE: SPACE 303 PTHP HEATING COIL OUTLET,COIL:HEATING:DX:SINGLESPEED,THERMAL ZONE: SPACE 303 PTHP HEATING COIL,Outlet,1
 Non-Parent Node Connection,THERMAL ZONE: SPACE 304 PTHP COOLING COIL OUTLET,COIL:HEATING:DX:SINGLESPEED,THERMAL ZONE: SPACE 304 PTHP HEATING COIL,Inlet,1
 Non-Parent Node Connection,THERMAL ZONE: SPACE 304 PTHP HEATING COIL OUTLET,COIL:HEATING:DX:SINGLESPEED,THERMAL ZONE: SPACE 304 PTHP HEATING COIL,Outlet,1
 Non-Parent Node Connection,THERMAL ZONE: SPACE 305 PTHP COOLING COIL OUTLET,COIL:HEATING:DX:SINGLESPEED,THERMAL ZONE: SPACE 305 PTHP HEATING COIL,Inlet,1
 Non-Parent Node Connection,THERMAL ZONE: SPACE 305 PTHP HEATING COIL OUTLET,COIL:HEATING:DX:SINGLESPEED,THERMAL ZONE: SPACE 305 PTHP HEATING COIL,Outlet,1
 Non-Parent Node Connection,THERMAL ZONE: SPACE 101 PTHP COOLING COIL OUTLET,COIL:HEATING:DX:SINGLESPEED,THERMAL ZONE: SPACE 101 PTHP HEATING COIL,Inlet,1
 Non-Parent Node Connection,THERMAL ZONE: SPACE 101 PTHP HEATING COIL OUTLET,COIL:HEATING:DX:SINGLESPEED,THERMAL ZONE: SPACE 101 PTHP HEATING COIL,Outlet,1
 Non-Parent Node Connection,THERMAL ZONE: SPACE 306 PTHP COOLING COIL OUTLET,COIL:HEATING:DX:SINGLESPEED,THERMAL ZONE: SPACE 306 PTHP HEATING COIL,Inlet,1
 Non-Parent Node Connection,THERMAL ZONE: SPACE 306 PTHP HEATING COIL OUTLET,COIL:HEATING:DX:SINGLESPEED,THERMAL ZONE: SPACE 306 PTHP HEATING COIL,Outlet,1
 Non-Parent Node Connection,THERMAL ZONE: SPACE 307 PTHP COOLING COIL OUTLET,COIL:HEATING:DX:SINGLESPEED,THERMAL ZONE: SPACE 307 PTHP HEATING COIL,Inlet,1
 Non-Parent Node Connection,THERMAL ZONE: SPACE 307 PTHP HEATING COIL OUTLET,COIL:HEATING:DX:SINGLESPEED,THERMAL ZONE: SPACE 307 PTHP HEATING COIL,Outlet,1
 Non-Parent Node Connection,THERMAL ZONE: SPACE 308 PTHP COOLING COIL OUTLET,COIL:HEATING:DX:SINGLESPEED,THERMAL ZONE: SPACE 308 PTHP HEATING COIL,Inlet,1
 Non-Parent Node Connection,THERMAL ZONE: SPACE 308 PTHP HEATING COIL OUTLET,COIL:HEATING:DX:SINGLESPEED,THERMAL ZONE: SPACE 308 PTHP HEATING COIL,Outlet,1
 Non-Parent Node Connection,THERMAL ZONE: SPACE 309 PTHP COOLING COIL OUTLET,COIL:HEATING:DX:SINGLESPEED,THERMAL ZONE: SPACE 309 PTHP HEATING COIL,Inlet,1
 Non-Parent Node Connection,THERMAL ZONE: SPACE 309 PTHP HEATING COIL OUTLET,COIL:HEATING:DX:SINGLESPEED,THERMAL ZONE: SPACE 309 PTHP HEATING COIL,Outlet,1
 Non-Parent Node Connection,THERMAL ZONE: SPACE 310 PTHP COOLING COIL OUTLET,COIL:HEATING:DX:SINGLESPEED,THERMAL ZONE: SPACE 310 PTHP HEATING COIL,Inlet,1
 Non-Parent Node Connection,THERMAL ZONE: SPACE 310 PTHP HEATING COIL OUTLET,COIL:HEATING:DX:SINGLESPEED,THERMAL ZONE: SPACE 310 PTHP HEATING COIL,Outlet,1
 Non-Parent Node Connection,THERMAL ZONE: SPACE 311 PTHP COOLING COIL OUTLET,COIL:HEATING:DX:SINGLESPEED,THERMAL ZONE: SPACE 311 PTHP HEATING COIL,Inlet,1
 Non-Parent Node Connection,THERMAL ZONE: SPACE 311 PTHP HEATING COIL OUTLET,COIL:HEATING:DX:SINGLESPEED,THERMAL ZONE: SPACE 311 PTHP HEATING COIL,Outlet,1
 Non-Parent Node Connection,THERMAL ZONE: SPACE 102 PTHP SUPPLY FAN OUTLET,COIL:HEATING:ELECTRIC,THERMAL ZONE: SPACE 102 PTHP SUPP HEATING COIL,Inlet,1
 Non-Parent Node Connection,THERMAL ZONE: SPACE 102 PTHP SUPPLY INLET,COIL:HEATING:ELECTRIC,THERMAL ZONE: SPACE 102 PTHP SUPP HEATING COIL,Outlet,1
 Non-Parent Node Connection,THERMAL ZONE: SPACE 103 PTHP SUPPLY FAN OUTLET,COIL:HEATING:ELECTRIC,THERMAL ZONE: SPACE 103 PTHP SUPP HEATING COIL,Inlet,1
 Non-Parent Node Connection,THERMAL ZONE: SPACE 103 PTHP SUPPLY INLET,COIL:HEATING:ELECTRIC,THERMAL ZONE: SPACE 103 PTHP SUPP HEATING COIL,Outlet,1
 Non-Parent Node Connection,THERMAL ZONE: SPACE 104 PTHP SUPPLY FAN OUTLET,COIL:HEATING:ELECTRIC,THERMAL ZONE: SPACE 104 PTHP SUPP HEATING COIL,Inlet,1
 Non-Parent Node Connection,THERMAL ZONE: SPACE 104 PTHP SUPPLY INLET,COIL:HEATING:ELECTRIC,THERMAL ZONE: SPACE 104 PTHP SUPP HEATING COIL,Outlet,1
 Non-Parent Node Connection,THERMAL ZONE: SPACE 105 PTHP SUPPLY FAN OUTLET,COIL:HEATING:ELECTRIC,THERMAL ZONE: SPACE 105 PTHP SUPP HEATING COIL,Inlet,1
 Non-Parent Node Connection,THERMAL ZONE: SPACE 105 PTHP SUPPLY INLET,COIL:HEATING:ELECTRIC,THERMAL ZONE: SPACE 105 PTHP SUPP HEATING COIL,Outlet,1
 Non-Parent Node Connection,THERMAL ZONE: SPACE 106 PTHP SUPPLY FAN OUTLET,COIL:HEATING:ELECTRIC,THERMAL ZONE: SPACE 106 PTHP SUPP HEATING COIL,Inlet,1
 Non-Parent Node Connection,THERMAL ZONE: SPACE 106 PTHP SUPPLY INLET,COIL:HEATING:ELECTRIC,THERMAL ZONE: SPACE 106 PTHP SUPP HEATING COIL,Outlet,1
 Non-Parent Node Connection,THERMAL ZONE: SPACE 107 PTHP SUPPLY FAN OUTLET,COIL:HEATING:ELECTRIC,THERMAL ZONE: SPACE 107 PTHP SUPP HEATING COIL,Inlet,1
 Non-Parent Node Connection,THERMAL ZONE: SPACE 107 PTHP SUPPLY INLET,COIL:HEATING:ELECTRIC,THERMAL ZONE: SPACE 107 PTHP SUPP HEATING COIL,Outlet,1
 Non-Parent Node Connection,THERMAL ZONE: SPACE 108 PTHP SUPPLY FAN OUTLET,COIL:HEATING:ELECTRIC,THERMAL ZONE: SPACE 108 PTHP SUPP HEATING COIL,Inlet,1
 Non-Parent Node Connection,THERMAL ZONE: SPACE 108 PTHP SUPPLY INLET,COIL:HEATING:ELECTRIC,THERMAL ZONE: SPACE 108 PTHP SUPP HEATING COIL,Outlet,1
 Non-Parent Node Connection,THERMAL ZONE: SPACE 109 PTHP SUPPLY FAN OUTLET,COIL:HEATING:ELECTRIC,THERMAL ZONE: SPACE 109 PTHP SUPP HEATING COIL,Inlet,1
 Non-Parent Node Connection,THERMAL ZONE: SPACE 109 PTHP SUPPLY INLET,COIL:HEATING:ELECTRIC,THERMAL ZONE: SPACE 109 PTHP SUPP HEATING COIL,Outlet,1
 Non-Parent Node Connection,THERMAL ZONE: SPACE 110 PTHP SUPPLY FAN OUTLET,COIL:HEATING:ELECTRIC,THERMAL ZONE: SPACE 110 PTHP SUPP HEATING COIL,Inlet,1
 Non-Parent Node Connection,THERMAL ZONE: SPACE 110 PTHP SUPPLY INLET,COIL:HEATING:ELECTRIC,THERMAL ZONE: SPACE 110 PTHP SUPP HEATING COIL,Outlet,1
 Non-Parent Node Connection,THERMAL ZONE: SPACE 111 PTHP SUPPLY FAN OUTLET,COIL:HEATING:ELECTRIC,THERMAL ZONE: SPACE 111 PTHP SUPP HEATING COIL,Inlet,1
 Non-Parent Node Connection,THERMAL ZONE: SPACE 111 PTHP SUPPLY INLET,COIL:HEATING:ELECTRIC,THERMAL ZONE: SPACE 111 PTHP SUPP HEATING COIL,Outlet,1
 Non-Parent Node Connection,THERMAL ZONE: SPACE 201 PTHP SUPPLY FAN OUTLET,COIL:HEATING:ELECTRIC,THERMAL ZONE: SPACE 201 PTHP SUPP HEATING COIL,Inlet,1
 Non-Parent Node Connection,THERMAL ZONE: SPACE 201 PTHP SUPPLY INLET,COIL:HEATING:ELECTRIC,THERMAL ZONE: SPACE 201 PTHP SUPP HEATING COIL,Outlet,1
 Non-Parent Node Connection,THERMAL ZONE: SPACE 202 PTHP SUPPLY FAN OUTLET,COIL:HEATING:ELECTRIC,THERMAL ZONE: SPACE 202 PTHP SUPP HEATING COIL,Inlet,1
 Non-Parent Node Connection,THERMAL ZONE: SPACE 202 PTHP SUPPLY INLET,COIL:HEATING:ELECTRIC,THERMAL ZONE: SPACE 202 PTHP SUPP HEATING COIL,Outlet,1
 Non-Parent Node Connection,THERMAL ZONE: SPACE 203 PTHP SUPPLY FAN OUTLET,COIL:HEATING:ELECTRIC,THERMAL ZONE: SPACE 203 PTHP SUPP HEATING COIL,Inlet,1
 Non-Parent Node Connection,THERMAL ZONE: SPACE 203 PTHP SUPPLY INLET,COIL:HEATING:ELECTRIC,THERMAL ZONE: SPACE 203 PTHP SUPP HEATING COIL,Outlet,1
 Non-Parent Node Connection,THERMAL ZONE: SPACE 204 PTHP SUPPLY FAN OUTLET,COIL:HEATING:ELECTRIC,THERMAL ZONE: SPACE 204 PTHP SUPP HEATING COIL,Inlet,1
 Non-Parent Node Connection,THERMAL ZONE: SPACE 204 PTHP SUPPLY INLET,COIL:HEATING:ELECTRIC,THERMAL ZONE: SPACE 204 PTHP SUPP HEATING COIL,Outlet,1
 Non-Parent Node Connection,THERMAL ZONE: SPACE 205 PTHP SUPPLY FAN OUTLET,COIL:HEATING:ELECTRIC,THERMAL ZONE: SPACE 205 PTHP SUPP HEATING COIL,Inlet,1
 Non-Parent Node Connection,THERMAL ZONE: SPACE 205 PTHP SUPPLY INLET,COIL:HEATING:ELECTRIC,THERMAL ZONE: SPACE 205 PTHP SUPP HEATING COIL,Outlet,1
 Non-Parent Node Connection,THERMAL ZONE: SPACE 206 PTHP SUPPLY FAN OUTLET,COIL:HEATING:ELECTRIC,THERMAL ZONE: SPACE 206 PTHP SUPP HEATING COIL,Inlet,1
 Non-Parent Node Connection,THERMAL ZONE: SPACE 206 PTHP SUPPLY INLET,COIL:HEATING:ELECTRIC,THERMAL ZONE: SPACE 206 PTHP SUPP HEATING COIL,Outlet,1
 Non-Parent Node Connection,THERMAL ZONE: SPACE 207 PTHP SUPPLY FAN OUTLET,COIL:HEATING:ELECTRIC,THERMAL ZONE: SPACE 207 PTHP SUPP HEATING COIL,Inlet,1
 Non-Parent Node Connection,THERMAL ZONE: SPACE 207 PTHP SUPPLY INLET,COIL:HEATING:ELECTRIC,THERMAL ZONE: SPACE 207 PTHP SUPP HEATING COIL,Outlet,1
 Non-Parent Node Connection,THERMAL ZONE: SPACE 208 PTHP SUPPLY FAN OUTLET,COIL:HEATING:ELECTRIC,THERMAL ZONE: SPACE 208 PTHP SUPP HEATING COIL,Inlet,1
 Non-Parent Node Connection,THERMAL ZONE: SPACE 208 PTHP SUPPLY INLET,COIL:HEATING:ELECTRIC,THERMAL ZONE: SPACE 208 PTHP SUPP HEATING COIL,Outlet,1
 Non-Parent Node Connection,THERMAL ZONE: SPACE 209 PTHP SUPPLY FAN OUTLET,COIL:HEATING:ELECTRIC,THERMAL ZONE: SPACE 209 PTHP SUPP HEATING COIL,Inlet,1
 Non-Parent Node Connection,THERMAL ZONE: SPACE 209 PTHP SUPPLY INLET,COIL:HEATING:ELECTRIC,THERMAL ZONE: SPACE 209 PTHP SUPP HEATING COIL,Outlet,1
 Non-Parent Node Connection,THERMAL ZONE: SPACE 210 PTHP SUPPLY FAN OUTLET,COIL:HEATING:ELECTRIC,THERMAL ZONE: SPACE 210 PTHP SUPP HEATING COIL,Inlet,1
 Non-Parent Node Connection,THERMAL ZONE: SPACE 210 PTHP SUPPLY INLET,COIL:HEATING:ELECTRIC,THERMAL ZONE: SPACE 210 PTHP SUPP HEATING COIL,Outlet,1
 Non-Parent Node Connection,THERMAL ZONE: SPACE 211 PTHP SUPPLY FAN OUTLET,COIL:HEATING:ELECTRIC,THERMAL ZONE: SPACE 211 PTHP SUPP HEATING COIL,Inlet,1
 Non-Parent Node Connection,THERMAL ZONE: SPACE 211 PTHP SUPPLY INLET,COIL:HEATING:ELECTRIC,THERMAL ZONE: SPACE 211 PTHP SUPP HEATING COIL,Outlet,1
 Non-Parent Node Connection,THERMAL ZONE: SPACE 301 PTHP SUPPLY FAN OUTLET,COIL:HEATING:ELECTRIC,THERMAL ZONE: SPACE 301 PTHP SUPP HEATING COIL,Inlet,1
 Non-Parent Node Connection,THERMAL ZONE: SPACE 301 PTHP SUPPLY INLET,COIL:HEATING:ELECTRIC,THERMAL ZONE: SPACE 301 PTHP SUPP HEATING COIL,Outlet,1
 Non-Parent Node Connection,THERMAL ZONE: SPACE 302 PTHP SUPPLY FAN OUTLET,COIL:HEATING:ELECTRIC,THERMAL ZONE: SPACE 302 PTHP SUPP HEATING COIL,Inlet,1
 Non-Parent Node Connection,THERMAL ZONE: SPACE 302 PTHP SUPPLY INLET,COIL:HEATING:ELECTRIC,THERMAL ZONE: SPACE 302 PTHP SUPP HEATING COIL,Outlet,1
 Non-Parent Node Connection,THERMAL ZONE: SPACE 303 PTHP SUPPLY FAN OUTLET,COIL:HEATING:ELECTRIC,THERMAL ZONE: SPACE 303 PTHP SUPP HEATING COIL,Inlet,1
 Non-Parent Node Connection,THERMAL ZONE: SPACE 303 PTHP SUPPLY INLET,COIL:HEATING:ELECTRIC,THERMAL ZONE: SPACE 303 PTHP SUPP HEATING COIL,Outlet,1
 Non-Parent Node Connection,THERMAL ZONE: SPACE 304 PTHP SUPPLY FAN OUTLET,COIL:HEATING:ELECTRIC,THERMAL ZONE: SPACE 304 PTHP SUPP HEATING COIL,Inlet,1
 Non-Parent Node Connection,THERMAL ZONE: SPACE 304 PTHP SUPPLY INLET,COIL:HEATING:ELECTRIC,THERMAL ZONE: SPACE 304 PTHP SUPP HEATING COIL,Outlet,1
 Non-Parent Node Connection,THERMAL ZONE: SPACE 305 PTHP SUPPLY FAN OUTLET,COIL:HEATING:ELECTRIC,THERMAL ZONE: SPACE 305 PTHP SUPP HEATING COIL,Inlet,1
 Non-Parent Node Connection,THERMAL ZONE: SPACE 305 PTHP SUPPLY INLET,COIL:HEATING:ELECTRIC,THERMAL ZONE: SPACE 305 PTHP SUPP HEATING COIL,Outlet,1
 Non-Parent Node Connection,THERMAL ZONE: SPACE 101 PTHP SUPPLY FAN OUTLET,COIL:HEATING:ELECTRIC,THERMAL ZONE: SPACE 101 PTHP SUPP HEATING COIL,Inlet,1
 Non-Parent Node Connection,THERMAL ZONE: SPACE 101 PTHP SUPPLY INLET,COIL:HEATING:ELECTRIC,THERMAL ZONE: SPACE 101 PTHP SUPP HEATING COIL,Outlet,1
 Non-Parent Node Connection,THERMAL ZONE: SPACE 306 PTHP SUPPLY FAN OUTLET,COIL:HEATING:ELECTRIC,THERMAL ZONE: SPACE 306 PTHP SUPP HEATING COIL,Inlet,1
 Non-Parent Node Connection,THERMAL ZONE: SPACE 306 PTHP SUPPLY INLET,COIL:HEATING:ELECTRIC,THERMAL ZONE: SPACE 306 PTHP SUPP HEATING COIL,Outlet,1
 Non-Parent Node Connection,THERMAL ZONE: SPACE 307 PTHP SUPPLY FAN OUTLET,COIL:HEATING:ELECTRIC,THERMAL ZONE: SPACE 307 PTHP SUPP HEATING COIL,Inlet,1
 Non-Parent Node Connection,THERMAL ZONE: SPACE 307 PTHP SUPPLY INLET,COIL:HEATING:ELECTRIC,THERMAL ZONE: SPACE 307 PTHP SUPP HEATING COIL,Outlet,1
 Non-Parent Node Connection,THERMAL ZONE: SPACE 308 PTHP SUPPLY FAN OUTLET,COIL:HEATING:ELECTRIC,THERMAL ZONE: SPACE 308 PTHP SUPP HEATING COIL,Inlet,1
 Non-Parent Node Connection,THERMAL ZONE: SPACE 308 PTHP SUPPLY INLET,COIL:HEATING:ELECTRIC,THERMAL ZONE: SPACE 308 PTHP SUPP HEATING COIL,Outlet,1
 Non-Parent Node Connection,THERMAL ZONE: SPACE 309 PTHP SUPPLY FAN OUTLET,COIL:HEATING:ELECTRIC,THERMAL ZONE: SPACE 309 PTHP SUPP HEATING COIL,Inlet,1
