Program Version,EnergyPlus, Version 9.1.0-08d2e308bb, YMD=2019.05.18 10:20,
   ** Severe  ** <root>[RunPeriod][runperiod][day_of_week_for_start_day] - "Yes" - Failed to match against any enum values.
   ** Severe  ** <root>[RunPeriod][runperiod][end_day_of_month] - Value type not permitted by 'type' constraint.
   ** Severe  ** <root>[RunPeriod][runperiod][end_month] - "31" - Expected number less than or equal to 12.000000
   ** Severe  ** <root>[RunPeriod][runperiod][end_year] - Value type not permitted by 'type' constraint.
   ** Severe  ** <root>[RunPeriod][runperiod][treat_weather_as_actual] - "2015" - Failed to match against any enum values.
   ** Severe  ** <root>[RunPeriod][runperiod][use_weather_file_rain_indicators] - "1" - Failed to match against any enum values.
   ** Severe  ** <root>[ZoneHVAC:EquipmentList][equipmentbedroom1.1][equipment][0][zone_equipment_object_type] - "bedroom1.1" - Failed to match against any enum values.
   ** Warning ** Version: in IDF="8.4" not the same as expected="9.1"
   **  Fatal  ** Errors occurred on processing input file. Preceding condition(s) cause termination.
   ...Summary of Errors that led to program termination:
   ..... Reference severe error count=7
   ..... Last severe error=<root>[ZoneHVAC:EquipmentList][equipmentbedroom1.1][equipment][0][zone_equipment_object_type] - "bedroom1.1" - Failed to match against any enum values.
   ************* Warning:  Node connection errors not checked - most system input has not been read (see previous warning).
   ************* Fatal error -- final processing.  Program exited before simulations began.  See previous error messages.
   ************* EnergyPlus Warmup Error Summary. During Warmup: 0 Warning; 0 Severe Errors.
   ************* EnergyPlus Sizing Error Summary. During Sizing: 0 Warning; 0 Severe Errors.
   ************* EnergyPlus Terminated--Fatal Error Detected. 1 Warning; 7 Severe Errors; Elapsed Time=00hr 00min  0.34sec
