Program Version,EnergyPlus, Version 8.7.0-78a111df4a, YMD=2019.06.21 03:08,IDD_Version 8.7.0
   ** Warning ** Output:PreprocessorMessage="ExpandObjects" has the following Warning condition:
   **   ~~~   ** Cannot find Energy+.idd as specified in Energy+.ini.
   ** Warning ** Output:PreprocessorMessage="ExpandObjects" has the following Warning conditions:
   **   ~~~   ** Since the Energy+.IDD file cannot be read no range or choice checking was
   **   ~~~   ** performed.
   ************* Beginning Zone Sizing Calculations
   ** Warning ** GetSurfaceData: WindowProperty:ShadingControl: "EXTERNAL SHADING CONTROL" is not referenced by any window.
   ** Warning ** CheckUsedConstructions: There are 22 nominally unused constructions in input.
   **   ~~~   ** For explicit details on each unused construction, use Output:Diagnostics,DisplayExtraWarnings;
   ** Warning ** Calculation of reflected solar onto surface=SOUTHWALL 101 may be inaccurate
   **   ~~~   ** because it has one or more vertices below ground level.
   ** Warning ** Calculation of reflected solar onto surface=WESTWALL 101 may be inaccurate
   **   ~~~   ** because it has one or more vertices below ground level.
   ** Warning ** Calculation of reflected solar onto surface=SOUTHWALL 102 may be inaccurate
   **   ~~~   ** because it has one or more vertices below ground level.
   ** Warning ** Calculation of reflected solar onto surface=SOUTHWALL 103 may be inaccurate
   **   ~~~   ** because it has one or more vertices below ground level.
   ** Warning ** Calculation of reflected solar onto surface=SOUTHWALL 104 may be inaccurate
   **   ~~~   ** because it has one or more vertices below ground level.
   ** Warning ** Calculation of reflected solar onto surface=EASTWALL 106 may be inaccurate
   **   ~~~   ** because it has one or more vertices below ground level.
   ** Warning ** Calculation of reflected solar onto surface=WESTWALL 106 may be inaccurate
   **   ~~~   ** because it has one or more vertices below ground level.
   ** Warning ** Calculation of reflected solar onto surface=NORTHWALL 107 may be inaccurate
   **   ~~~   ** because it has one or more vertices below ground level.
   ** Warning ** Calculation of reflected solar onto surface=WESTWALL 107 may be inaccurate
   **   ~~~   ** because it has one or more vertices below ground level.
   ** Warning ** Calculation of reflected solar onto surface=NORTHWALL 108 may be inaccurate
   **   ~~~   ** because it has one or more vertices below ground level.
   ** Warning ** Calculation of reflected solar onto surface=NORTHWALL 109 may be inaccurate
   **   ~~~   ** because it has one or more vertices below ground level.
   ** Warning ** Calculation of reflected solar onto surface=NORTHWALL 110 may be inaccurate
   **   ~~~   ** because it has one or more vertices below ground level.
   ** Warning ** Calculation of reflected solar onto surface=EASTWALL 111 may be inaccurate
   **   ~~~   ** because it has one or more vertices below ground level.
   ** Warning ** Calculation of reflected solar onto surface=NORTHWALL 111 may be inaccurate
   **   ~~~   ** because it has one or more vertices below ground level.
   ************* Testing Individual Branch Integrity
   ************* All Branches passed integrity testing
   ************* Testing Individual Supply Air Path Integrity
   ************* All Supply Air Paths passed integrity testing
   ************* Testing Individual Return Air Path Integrity
   ************* All Return Air Paths passed integrity testing
   ************* No node connection errors were found.
   ************* Beginning Simulation
   ************* Simulation Error Summary *************
   ************* There are 9 unused schedules in input.
   ************* There are 6 unused week schedules in input.
   ************* There are 6 unused day schedules in input.
   ************* Use Output:Diagnostics,DisplayUnusedSchedules; to see them.
   *************
   ************* ===== Final Error Summary =====
   ************* The following error categories occurred.  Consider correcting or noting.
   ************* Nominally Unused Constructions
   ************* ..The nominally unused constructions warning is provided to alert you to potential conditions that can cause
   ************* ..extra time during simulation. Each construction is calculated by the algorithm indicated in the HeatBalanceAlgorithm
   ************* ..object. You may remove the constructions indicated (when you use the DisplayExtraWarnings option).
   *************
   ************* EnergyPlus Warmup Error Summary. During Warmup: 0 Warning; 0 Severe Errors.
   ************* EnergyPlus Sizing Error Summary. During Sizing: 16 Warning; 0 Severe Errors.
   ************* EnergyPlus Completed Successfully-- 18 Warning; 0 Severe Errors; Elapsed Time=00hr 01min 30.48sec
