Program Version,EnergyPlus, Version 8.7.0-78a111df4a, YMD=2019.05.27 21:29
! <Version>, Version ID
 Version, 8.4
! <Timesteps per Hour>, #TimeSteps, Minutes per TimeStep {minutes}
 Timesteps per Hour,  4, 15
! <System Convergence Limits>, Minimum System TimeStep {minutes}, Max HVAC Iterations, Minimum Plant Iterations, Maximum Plant Iterations
 System Convergence Limits, 1, 20, 2, 8
! <Simulation Control>, Do Zone Sizing, Do System Sizing, Do Plant Sizing, Do Design Days, Do Weather Simulation, Do HVAC Sizing Simulation
 Simulation Control, No, No, No, Yes, Yes, No
! <Output Reporting Tolerances>, Tolerance for Time Heating Setpoint Not Met, Tolerance for Zone Cooling Setpoint Not Met Time
 Output Reporting Tolerances, 0.200, 0.200, 
! <Site:GroundTemperature:BuildingSurface>,Jan{C},Feb{C},Mar{C},Apr{C},May{C},Jun{C},Jul{C},Aug{C},Sep{C},Oct{C},Nov{C},Dec{C}
 Site:GroundTemperature:BuildingSurface,  17.73,  17.58,  14.99,  15.72,  19.24,  24.78,  25.36,  25.42,  25.45,  23.67,  19.98,  19.57
! <Site:GroundTemperature:FCfactorMethod>,Jan{C},Feb{C},Mar{C},Apr{C},May{C},Jun{C},Jul{C},Aug{C},Sep{C},Oct{C},Nov{C},Dec{C}
 Site:GroundTemperature:FCfactorMethod,  13.31,  10.23,   9.39,  10.12,  14.28,  18.95,  23.34,  26.51,  27.44,  25.95,  22.35,  17.82
! <Site:GroundTemperature:Shallow>,Jan{C},Feb{C},Mar{C},Apr{C},May{C},Jun{C},Jul{C},Aug{C},Sep{C},Oct{C},Nov{C},Dec{C}
 Site:GroundTemperature:Shallow,  13.00,  13.00,  13.00,  13.00,  13.00,  13.00,  13.00,  13.00,  13.00,  13.00,  13.00,  13.00
! <Site:GroundTemperature:Deep>,Jan{C},Feb{C},Mar{C},Apr{C},May{C},Jun{C},Jul{C},Aug{C},Sep{C},Oct{C},Nov{C},Dec{C}
 Site:GroundTemperature:Deep,  16.00,  16.00,  16.00,  16.00,  16.00,  16.00,  16.00,  16.00,  16.00,  16.00,  16.00,  16.00
! <Site:GroundReflectance>,Jan{dimensionless},Feb{dimensionless},Mar{dimensionless},Apr{dimensionless},May{dimensionless},Jun{dimensionless},Jul{dimensionless},Aug{dimensionless},Sep{dimensionless},Oct{dimensionless},Nov{dimensionless},Dec{dimensionless}
 Site:GroundReflectance,  0.20,  0.20,  0.20,  0.20,  0.20,  0.20,  0.20,  0.20,  0.20,  0.20,  0.20,  0.20
! <Site:GroundReflectance:SnowModifier>, Normal, Daylighting {dimensionless}
 Site:GroundReflectance:SnowModifier,   1.000,   1.000
! <Site:GroundReflectance:Snow>,Jan{dimensionless},Feb{dimensionless},Mar{dimensionless},Apr{dimensionless},May{dimensionless},Jun{dimensionless},Jul{dimensionless},Aug{dimensionless},Sep{dimensionless},Oct{dimensionless},Nov{dimensionless},Dec{dimensionless}
 Site:GroundReflectance:Snow,  0.20,  0.20,  0.20,  0.20,  0.20,  0.20,  0.20,  0.20,  0.20,  0.20,  0.20,  0.20
! <Site:GroundReflectance:Snow:Daylighting>,Jan{dimensionless},Feb{dimensionless},Mar{dimensionless},Apr{dimensionless},May{dimensionless},Jun{dimensionless},Jul{dimensionless},Aug{dimensionless},Sep{dimensionless},Oct{dimensionless},Nov{dimensionless},Dec{dimensionless}
 Site:GroundReflectance:Snow:Daylighting,  0.20,  0.20,  0.20,  0.20,  0.20,  0.20,  0.20,  0.20,  0.20,  0.20,  0.20,  0.20
! <Environment:Weather Station>,Wind Sensor Height Above Ground {m},Wind Speed Profile Exponent {},Wind Speed Profile Boundary Layer Thickness {m},Air Temperature Sensor Height Above Ground {m},Wind Speed Modifier Coefficient-Internal,Temperature Modifier Coefficient-Internal
Environment:Weather Station,10.000,0.140,270.000,1.500,1.586,9.750E-003
! <Site:Location>, Location Name, Latitude {N+/S- Deg}, Longitude {E+/W- Deg},  Time Zone Number {GMT+/-}, Elevation {m},  Standard Pressure at Elevation {Pa}, Standard RhoAir at Elevation
Site:Location,Chongqing Shapingba Chongqing CHN CSWD WMO#=575160,29.58,106.47,8.00,259.10,98251,1.1678
! <Building Information>, Building Name,North Axis {deg},Terrain,  Loads Convergence Tolerance Value,Temperature Convergence Tolerance Value,  Solar Distribution,Maximum Number of Warmup Days,Minimum Number of Warmup Days
 Building Information,3cengzhuzhai,47.321,City,4.00000E-002,0.40000,FullInteriorAndExterior,25,6
! <Inside Convection Algorithm>, Algorithm {Simple | TARP | CeilingDiffuser | AdaptiveConvectionAlgorithm}
Inside Convection Algorithm,AdaptiveConvectionAlgorithm
! <Outside Convection Algorithm>, Algorithm {SimpleCombined | TARP | MoWitt | DOE-2 | AdaptiveConvectionAlgorithm}
Outside Convection Algorithm,AdaptiveConvectionAlgorithm
! <Sky Radiance Distribution>, Value {Anisotropic}
Sky Radiance Distribution,Anisotropic
! <Zone Air Solution Algorithm>, Value {ThirdOrderBackwardDifference | AnalyticalSolution | EulerMethod}
 Zone Air Solution Algorithm, ThirdOrderBackwardDifference
! <Zone Air Carbon Dioxide Balance Simulation>, Simulation {Yes/No}, Carbon Dioxide Concentration
 Zone Air Carbon Dioxide Balance Simulation, No,N/A
! <Zone Air Generic Contaminant Balance Simulation>, Simulation {Yes/No}, Generic Contaminant Concentration
 Zone Air Generic Contaminant Balance Simulation, No,N/A
! <Zone Air Mass Flow Balance Simulation>, Enforce Mass Balance, Adjust Zone Mixing, Adjust Zone Infiltration {AddInfiltration | AdjustInfiltration | None}, Infiltration Zones {MixingSourceZonesOnly | AllZones}
 Zone Air Mass Flow Balance Simulation, No,N/A,N/A,N/A
! <Environment:Site Atmospheric Variation>,Wind Speed Profile Exponent {},Wind Speed Profile Boundary Layer Thickness {m},Air Temperature Gradient Coefficient {K/m}
Environment:Site Atmospheric Variation,0.330,460.000,6.500000E-003
! <Surface Geometry>,Starting Corner,Vertex Input Direction,Coordinate System,Daylight Reference Point Coordinate System,Rectangular (Simple) Surface Coordinate System
 Surface Geometry,UpperLeftCorner,Counterclockwise,RelativeCoordinateSystem,RelativeCoordinateSystem,RelativeToZoneOrigin
! <Surface Heat Transfer Algorithm>, Value {CTF - ConductionTransferFunction | EMPD - MoisturePenetrationDepthConductionTransferFunction | CondFD - ConductionFiniteDifference | HAMT - CombinedHeatAndMoistureFiniteElement} - Description,Inside Surface Max Temperature Limit{C}, Surface Convection Coefficient Lower Limit {W/m2-K}, Surface Convection Coefficient Upper Limit {W/m2-K}
Surface Heat Transfer Algorithm, CTF - ConductionTransferFunction,200,0.10,1000.0
! <Shading Summary>, Number of Fixed Detached Shades, Number of Building Detached Shades, Number of Attached Shades
 Shading Summary,0,0,0
! <Zone Summary>, Number of Zones, Number of Zone Surfaces, Number of SubSurfaces
 Zone Summary,63,498,60
! <Zone Information>,Zone Name,North Axis {deg},Origin X-Coordinate {m},Origin Y-Coordinate {m},Origin Z-Coordinate {m},Centroid X-Coordinate {m},Centroid Y-Coordinate {m},Centroid Z-Coordinate {m},Type,Zone Multiplier,Zone List Multiplier,Minimum X {m},Maximum X {m},Minimum Y {m},Maximum Y {m},Minimum Z {m},Maximum Z {m},Ceiling Height {m},Volume {m3},Zone Inside Convection Algorithm {Simple-Detailed-CeilingDiffuser-TrombeWall},Zone Outside Convection Algorithm {Simple-Detailed-Tarp-MoWitt-DOE-2-BLAST}, Floor Area {m2},Exterior Gross Wall Area {m2},Exterior Net Wall Area {m2},Exterior Window Area {m2}, Number of Surfaces, Number of SubSurfaces, Number of Shading SubSurfaces,  Part of Total Building Area
 Zone Information, KITCHEN1.1,0.0,8.60,3.00,0.00,10.50,-3.65,1.50,1,1,1,8.04,12.97,-6.05,-1.24,0.00,3.00,3.00,32.40,AdaptiveConvectionAlgorithm,AdaptiveConvectionAlgorithm,10.80,0.00,0.00,0.00,6,0,0,Yes
 Zone Information, BEDROOM1.4,0.0,16.00,0.00,0.00,13.98,-12.95,1.50,1,1,1,10.85,17.12,-16.17,-9.73,0.00,3.00,3.00,54.00,AdaptiveConvectionAlgorithm,AdaptiveConvectionAlgorithm,18.00,27.00,24.51,2.49,6,2,0,Yes
 Zone Information, KITCHEN1.2,0.0,11.00,3.00,0.00,12.13,-5.41,1.50,1,1,1,9.66,14.60,-7.82,-3.00,0.00,3.00,3.00,32.40,AdaptiveConvectionAlgorithm,AdaptiveConvectionAlgorithm,10.80,0.00,0.00,0.00,6,0,0,Yes
 Zone Information, LIVINGROOM1.2,0.0,13.50,3.00,0.00,15.86,-9.45,1.50,1,1,1,11.29,20.43,-14.14,-4.77,0.00,3.00,3.00,116.10,AdaptiveConvectionAlgorithm,AdaptiveConvectionAlgorithm,38.70,13.50,11.63,1.87,8,1,0,Yes
 Zone Information, BEDROOM1.7,0.0,0.00,11.00,0.00,11.92,5.89,1.50,1,1,1,8.09,15.74,1.94,9.83,0.00,3.00,3.00,78.75,AdaptiveConvectionAlgorithm,AdaptiveConvectionAlgorithm,26.25,10.50,9.85,0.65,6,1,0,Yes
 Zone Information, LIVINGROOM1.3,0.0,0.00,14.50,0.00,15.23,8.19,1.50,1,1,1,10.66,19.80,3.51,12.88,0.00,3.00,3.00,116.10,AdaptiveConvectionAlgorithm,AdaptiveConvectionAlgorithm,38.70,13.50,12.66,0.84,8,1,0,Yes
 Zone Information, BEDROOM1.9,0.0,0.00,19.00,0.00,17.10,11.69,1.50,1,1,1,13.97,20.24,8.47,14.91,0.00,3.00,3.00,54.00,AdaptiveConvectionAlgorithm,AdaptiveConvectionAlgorithm,18.00,27.00,24.30,2.70,6,2,0,Yes
 Zone Information, BEDROOM1.10,0.0,6.00,19.00,0.00,20.83,7.65,1.50,1,1,1,18.04,23.63,4.79,10.50,0.00,3.00,3.00,45.00,AdaptiveConvectionAlgorithm,AdaptiveConvectionAlgorithm,15.00,15.00,12.86,2.14,7,1,0,Yes
 Zone Information, BEDROOM1.11,0.0,11.00,19.00,0.00,24.22,3.97,1.50,1,1,1,21.42,27.02,1.12,6.83,0.00,3.00,3.00,45.00,AdaptiveConvectionAlgorithm,AdaptiveConvectionAlgorithm,15.00,15.00,12.86,2.14,7,1,0,Yes
 Zone Information, BEDROOM1.12,0.0,16.00,19.00,0.00,27.95,-7.13E-002,1.50,1,1,1,24.81,31.09,-3.29,3.15,0.00,3.00,3.00,54.00,AdaptiveConvectionAlgorithm,AdaptiveConvectionAlgorithm,18.00,27.00,23.61,3.39,6,2,0,Yes
 Zone Information, STAIRCASE1.1,0.0,7.50,7.50,0.00,15.54,-0.63,1.50,1,1,1,10.60,20.49,-5.58,4.32,0.00,3.00,3.00,147.00,AdaptiveConvectionAlgorithm,AdaptiveConvectionAlgorithm,49.00,0.00,0.00,0.00,14,0,0,Yes
 Zone Information, KITCHEN1.3,0.0,8.60,14.50,0.00,18.96,4.15,1.50,1,1,1,16.49,21.42,1.74,6.56,0.00,3.00,3.00,32.40,AdaptiveConvectionAlgorithm,AdaptiveConvectionAlgorithm,10.80,0.00,0.00,0.00,6,0,0,Yes
 Zone Information, KITCHEN1.4,0.0,11.00,14.50,0.00,20.58,2.39,1.50,1,1,1,18.12,23.05,-2.17E-002,4.79,0.00,3.00,3.00,32.40,AdaptiveConvectionAlgorithm,AdaptiveConvectionAlgorithm,10.80,0.00,0.00,0.00,6,0,0,Yes
 Zone Information, LIVINGROOM1.4,0.0,13.40,14.50,0.00,24.31,-1.66,1.50,1,1,1,19.74,28.88,-6.34,3.03,0.00,3.00,3.00,116.10,AdaptiveConvectionAlgorithm,AdaptiveConvectionAlgorithm,38.70,13.50,11.63,1.87,8,1,0,Yes
 Zone Information, BEDROOM1.6,0.0,14.50,7.50,0.00,19.17,-7.15,1.50,1,1,1,15.34,23.00,-11.09,-3.20,0.00,3.00,3.00,78.75,AdaptiveConvectionAlgorithm,AdaptiveConvectionAlgorithm,26.25,10.50,9.05,1.45,6,1,0,Yes
 Zone Information, BEDROOM1.8,0.0,14.50,11.00,0.00,21.74,-4.77,1.50,1,1,1,17.92,25.57,-8.72,-0.83,0.00,3.00,3.00,78.75,AdaptiveConvectionAlgorithm,AdaptiveConvectionAlgorithm,26.25,10.50,9.05,1.45,6,1,0,Yes
 Zone Information, BEDROOM1.3,0.0,11.00,0.00,0.00,10.25,-8.91,1.50,1,1,1,7.46,13.05,-11.76,-6.05,0.00,3.00,3.00,45.00,AdaptiveConvectionAlgorithm,AdaptiveConvectionAlgorithm,15.00,15.00,13.76,1.24,7,1,0,Yes
 Zone Information, BEDROOM1.2,0.0,6.00,0.00,0.00,6.86,-5.23,1.50,1,1,1,4.07,9.66,-8.09,-2.38,0.00,3.00,3.00,45.00,AdaptiveConvectionAlgorithm,AdaptiveConvectionAlgorithm,15.00,15.00,13.76,1.24,7,1,0,Yes
 Zone Information, BEDROOM1.1,0.0,0.00,0.00,0.00,3.14,-1.19,1.50,1,1,1,0.00,6.27,-4.41,2.03,0.00,3.00,3.00,54.00,AdaptiveConvectionAlgorithm,AdaptiveConvectionAlgorithm,18.00,27.00,25.20,1.80,6,2,0,Yes
 Zone Information, LIVINGROOM1.1,0.0,0.00,3.00,0.00,6.77,0.40,1.50,1,1,1,2.21,11.34,-4.29,5.08,0.00,3.00,3.00,116.10,AdaptiveConvectionAlgorithm,AdaptiveConvectionAlgorithm,38.70,13.50,12.66,0.84,8,1,0,Yes
 Zone Information, BEDROOM1.5,0.0,0.00,7.50,0.00,9.34,3.51,1.50,1,1,1,5.51,13.17,-0.43,7.46,0.00,3.00,3.00,78.75,AdaptiveConvectionAlgorithm,AdaptiveConvectionAlgorithm,26.25,10.50,9.85,0.65,6,1,0,Yes
 Zone Information, LIVINGROOM2.4,0.0,13.40,14.50,0.00,24.31,-1.66,4.50,1,1,1,19.74,28.88,-6.34,3.03,3.00,6.00,3.00,116.10,AdaptiveConvectionAlgorithm,AdaptiveConvectionAlgorithm,38.70,13.50,11.63,1.87,8,1,0,Yes
 Zone Information, BEDROOM2.5,0.0,0.00,7.50,0.00,9.34,3.51,4.50,1,1,1,5.51,13.17,-0.43,7.46,3.00,6.00,3.00,78.75,AdaptiveConvectionAlgorithm,AdaptiveConvectionAlgorithm,26.25,10.50,9.85,0.65,6,1,0,Yes
 Zone Information, LIVINGROOM2.1,0.0,0.00,3.00,0.00,6.77,0.40,4.50,1,1,1,2.21,11.34,-4.29,5.08,3.00,6.00,3.00,116.10,AdaptiveConvectionAlgorithm,AdaptiveConvectionAlgorithm,38.70,13.50,12.66,0.84,8,1,0,Yes
 Zone Information, BEDROOM2.11,0.0,11.00,19.00,0.00,24.22,3.97,4.50,1,1,1,21.42,27.16,1.12,6.83,3.00,6.00,3.00,45.00,AdaptiveConvectionAlgorithm,AdaptiveConvectionAlgorithm,15.00,15.00,12.86,2.14,7,1,0,Yes
 Zone Information, BEDROOM2.10,0.0,6.00,19.00,0.00,20.83,7.65,4.50,1,1,1,18.04,23.77,4.79,10.50,3.00,6.00,3.00,45.00,AdaptiveConvectionAlgorithm,AdaptiveConvectionAlgorithm,15.00,15.00,12.86,2.14,7,1,0,Yes
 Zone Information, BEDROOM2.9,0.0,0.00,19.00,0.00,17.10,11.69,4.50,1,1,1,13.97,20.24,8.47,14.91,3.00,6.00,3.00,54.00,AdaptiveConvectionAlgorithm,AdaptiveConvectionAlgorithm,18.00,27.00,24.30,2.70,6,2,0,Yes
 Zone Information, LIVINGROOM2.3,0.0,0.00,14.50,0.00,15.23,8.19,4.50,1,1,1,10.66,19.80,3.51,12.88,3.00,6.00,3.00,116.10,AdaptiveConvectionAlgorithm,AdaptiveConvectionAlgorithm,38.70,13.50,12.66,0.84,8,1,0,Yes
 Zone Information, BEDROOM2.7,0.0,0.00,11.00,0.00,11.92,5.89,4.50,1,1,1,8.09,15.74,1.94,9.83,3.00,6.00,3.00,78.75,AdaptiveConvectionAlgorithm,AdaptiveConvectionAlgorithm,26.25,10.50,9.85,0.65,6,1,0,Yes
 Zone Information, LIVINGROOM2.2,0.0,13.50,3.00,0.00,15.86,-9.45,4.50,1,1,1,11.29,20.43,-14.14,-4.77,3.00,6.00,3.00,116.10,AdaptiveConvectionAlgorithm,AdaptiveConvectionAlgorithm,38.70,13.50,11.63,1.87,8,1,0,Yes
 Zone Information, BEDROOM2.2,0.0,6.00,0.00,0.00,6.86,-5.23,4.50,1,1,1,4.07,9.66,-8.09,-2.38,3.00,6.00,3.00,45.00,AdaptiveConvectionAlgorithm,AdaptiveConvectionAlgorithm,15.00,15.00,13.76,1.24,7,1,0,Yes
 Zone Information, BEDROOM2.8,0.0,14.50,11.00,0.00,21.74,-4.77,4.50,1,1,1,17.92,25.57,-8.72,-0.83,3.00,6.00,3.00,78.75,AdaptiveConvectionAlgorithm,AdaptiveConvectionAlgorithm,26.25,10.50,9.05,1.45,6,1,0,Yes
 Zone Information, BEDROOM2.3,0.0,11.00,0.00,0.00,10.25,-8.91,4.50,1,1,1,7.46,13.05,-11.76,-6.05,3.00,6.00,3.00,45.00,AdaptiveConvectionAlgorithm,AdaptiveConvectionAlgorithm,15.00,15.00,13.76,1.24,7,1,0,Yes
 Zone Information, BEDROOM2.1,0.0,0.00,0.00,0.00,3.14,-1.19,4.50,1,1,1,0.00,6.27,-4.41,2.03,3.00,6.00,3.00,54.00,AdaptiveConvectionAlgorithm,AdaptiveConvectionAlgorithm,18.00,27.00,25.20,1.80,6,2,0,Yes
 Zone Information, BEDROOM2.4,0.0,16.00,0.00,0.00,13.98,-12.95,4.50,1,1,1,10.85,17.12,-16.17,-9.73,3.00,6.00,3.00,54.00,AdaptiveConvectionAlgorithm,AdaptiveConvectionAlgorithm,18.00,27.00,24.51,2.49,6,2,0,Yes
 Zone Information, BEDROOM2.6,0.0,14.50,7.50,0.00,19.17,-7.15,4.50,1,1,1,15.34,23.00,-11.09,-3.20,3.00,6.00,3.00,78.75,AdaptiveConvectionAlgorithm,AdaptiveConvectionAlgorithm,26.25,10.50,9.05,1.45,6,1,0,Yes
 Zone Information, KITCHEN2.1,0.0,8.60,3.00,0.00,10.50,-3.65,4.50,1,1,1,8.04,12.97,-6.05,-1.24,3.00,6.00,3.00,32.40,AdaptiveConvectionAlgorithm,AdaptiveConvectionAlgorithm,10.80,0.00,0.00,0.00,6,0,0,Yes
 Zone Information, KITCHEN2.4,0.0,11.00,14.50,0.00,20.58,2.39,4.50,1,1,1,18.12,23.05,-2.17E-002,4.79,3.00,6.00,3.00,32.40,AdaptiveConvectionAlgorithm,AdaptiveConvectionAlgorithm,10.80,0.00,0.00,0.00,6,0,0,Yes
 Zone Information, KITCHEN2.3,0.0,8.60,14.50,0.00,18.96,4.15,4.50,1,1,1,16.49,21.42,1.74,6.56,3.00,6.00,3.00,32.40,AdaptiveConvectionAlgorithm,AdaptiveConvectionAlgorithm,10.80,0.00,0.00,0.00,6,0,0,Yes
 Zone Information, STAIRCASE2.1,0.0,7.50,7.50,0.00,15.54,-0.63,4.50,1,1,1,10.60,20.49,-5.58,4.32,3.00,6.00,3.00,147.00,AdaptiveConvectionAlgorithm,AdaptiveConvectionAlgorithm,49.00,0.00,0.00,0.00,14,0,0,Yes
 Zone Information, BEDROOM2.12,0.0,16.00,19.00,0.00,27.95,-7.13E-002,4.50,1,1,1,24.81,31.09,-3.29,3.15,3.00,6.00,3.00,54.00,AdaptiveConvectionAlgorithm,AdaptiveConvectionAlgorithm,18.00,27.00,23.61,3.39,6,2,0,Yes
 Zone Information, KITCHEN2.2,0.0,11.00,3.00,0.00,12.13,-5.41,4.50,1,1,1,9.66,14.60,-7.82,-3.00,3.00,6.00,3.00,32.40,AdaptiveConvectionAlgorithm,AdaptiveConvectionAlgorithm,10.80,0.00,0.00,0.00,6,0,0,Yes
 Zone Information, LIVINGROOM3.4,0.0,13.40,14.50,0.00,24.31,-1.66,7.50,1,1,1,19.74,28.88,-6.34,3.03,6.00,9.00,3.00,116.10,AdaptiveConvectionAlgorithm,AdaptiveConvectionAlgorithm,38.70,13.50,11.63,1.87,8,1,0,Yes
 Zone Information, BEDROOM3.5,0.0,0.00,7.50,0.00,9.34,3.51,7.50,1,1,1,5.51,13.17,-0.43,7.46,6.00,9.00,3.00,78.75,AdaptiveConvectionAlgorithm,AdaptiveConvectionAlgorithm,26.25,10.50,9.85,0.65,6,1,0,Yes
 Zone Information, LIVINGROOM3.1,0.0,0.00,3.00,0.00,6.77,0.40,7.50,1,1,1,2.21,11.34,-4.29,5.08,6.00,9.00,3.00,116.10,AdaptiveConvectionAlgorithm,AdaptiveConvectionAlgorithm,38.70,13.50,12.66,0.84,8,1,0,Yes
 Zone Information, BEDROOM3.11,0.0,11.00,19.00,0.00,24.22,3.97,7.50,1,1,1,21.42,29.20,0.79,6.83,6.00,9.00,3.00,45.00,AdaptiveConvectionAlgorithm,AdaptiveConvectionAlgorithm,15.00,15.00,12.86,2.14,7,1,0,Yes
 Zone Information, BEDROOM3.10,0.0,6.00,19.00,0.00,20.83,7.65,7.50,1,1,1,18.04,25.81,4.46,10.50,6.00,9.00,3.00,45.00,AdaptiveConvectionAlgorithm,AdaptiveConvectionAlgorithm,15.00,15.00,12.86,2.14,7,1,0,Yes
 Zone Information, BEDROOM3.9,0.0,0.00,19.00,0.00,17.10,11.69,7.50,1,1,1,13.97,21.74,8.47,14.91,6.00,9.00,3.00,54.00,AdaptiveConvectionAlgorithm,AdaptiveConvectionAlgorithm,18.00,27.00,24.30,2.70,6,2,0,Yes
 Zone Information, LIVINGROOM3.3,0.0,0.00,14.50,0.00,15.23,8.19,7.50,1,1,1,10.66,19.80,3.51,12.88,6.00,9.00,3.00,116.10,AdaptiveConvectionAlgorithm,AdaptiveConvectionAlgorithm,38.70,13.50,12.66,0.84,8,1,0,Yes
 Zone Information, KITCHEN3.4,0.0,11.00,14.50,0.00,20.58,2.39,7.50,1,1,1,18.12,23.05,-2.17E-002,4.79,6.00,9.00,3.00,32.40,AdaptiveConvectionAlgorithm,AdaptiveConvectionAlgorithm,10.80,0.00,0.00,0.00,6,0,0,Yes
 Zone Information, KITCHEN3.1,0.0,8.60,3.00,0.00,10.50,-3.65,7.50,1,1,1,8.04,12.97,-6.05,-1.24,6.00,9.00,3.00,32.40,AdaptiveConvectionAlgorithm,AdaptiveConvectionAlgorithm,10.80,0.00,0.00,0.00,6,0,0,Yes
 Zone Information, BEDROOM3.4,0.0,16.00,0.00,0.00,13.98,-12.95,7.50,1,1,1,10.85,17.12,-17.58,-9.73,6.00,9.00,3.00,54.00,AdaptiveConvectionAlgorithm,AdaptiveConvectionAlgorithm,18.00,27.00,24.51,2.49,6,2,0,Yes
 Zone Information, BEDROOM3.6,0.0,14.50,7.50,0.00,19.17,-7.15,7.50,1,1,1,15.34,23.00,-11.09,-3.20,6.00,9.00,3.00,78.75,AdaptiveConvectionAlgorithm,AdaptiveConvectionAlgorithm,26.25,10.50,9.05,1.45,6,1,0,Yes
 Zone Information, KITCHEN3.3,0.0,8.60,14.50,0.00,18.96,4.15,7.50,1,1,1,16.49,21.42,1.74,6.56,6.00,9.00,3.00,32.40,AdaptiveConvectionAlgorithm,AdaptiveConvectionAlgorithm,10.80,0.00,0.00,0.00,6,0,0,Yes
 Zone Information, KITCHEN3.2,0.0,11.00,3.00,0.00,12.13,-5.41,7.50,1,1,1,9.66,14.60,-7.82,-3.00,6.00,9.00,3.00,32.40,AdaptiveConvectionAlgorithm,AdaptiveConvectionAlgorithm,10.80,0.00,0.00,0.00,6,0,0,Yes
 Zone Information, BEDROOM3.12,0.0,16.00,19.00,0.00,27.95,-7.13E-002,7.50,1,1,1,24.81,32.59,-3.29,3.15,6.00,9.00,3.00,54.00,AdaptiveConvectionAlgorithm,AdaptiveConvectionAlgorithm,18.00,27.00,23.61,3.39,6,2,0,Yes
 Zone Information, STAIRCASE3.1,0.0,7.50,7.50,0.00,15.54,-0.63,7.50,1,1,1,10.60,20.49,-5.58,4.32,6.00,9.00,3.00,147.00,AdaptiveConvectionAlgorithm,AdaptiveConvectionAlgorithm,49.00,0.00,0.00,0.00,14,0,0,Yes
 Zone Information, BEDROOM3.3,0.0,11.00,0.00,0.00,10.25,-8.91,7.50,1,1,1,7.46,13.05,-13.90,-6.05,6.00,9.00,3.00,45.00,AdaptiveConvectionAlgorithm,AdaptiveConvectionAlgorithm,15.00,15.00,13.76,1.24,7,1,0,Yes
 Zone Information, BEDROOM3.1,0.0,0.00,0.00,0.00,3.14,-1.19,7.50,1,1,1,0.00,6.27,-5.82,2.03,6.00,9.00,3.00,54.00,AdaptiveConvectionAlgorithm,AdaptiveConvectionAlgorithm,18.00,27.00,25.20,1.80,6,2,0,Yes
 Zone Information, BEDROOM3.8,0.0,14.50,11.00,0.00,21.74,-4.77,7.50,1,1,1,17.92,25.57,-8.72,-0.83,6.00,9.00,3.00,78.75,AdaptiveConvectionAlgorithm,AdaptiveConvectionAlgorithm,26.25,10.50,9.05,1.45,6,1,0,Yes
 Zone Information, BEDROOM3.2,0.0,6.00,0.00,0.00,6.86,-5.23,7.50,1,1,1,4.07,9.66,-10.23,-2.38,6.00,9.00,3.00,45.00,AdaptiveConvectionAlgorithm,AdaptiveConvectionAlgorithm,15.00,15.00,13.76,1.24,7,1,0,Yes
 Zone Information, LIVINGROOM3.2,0.0,13.50,3.00,0.00,15.86,-9.45,7.50,1,1,1,11.29,20.43,-14.14,-4.77,6.00,9.00,3.00,116.10,AdaptiveConvectionAlgorithm,AdaptiveConvectionAlgorithm,38.70,13.50,11.63,1.87,8,1,0,Yes
 Zone Information, BEDROOM3.7,0.0,0.00,11.00,0.00,11.92,5.89,7.50,1,1,1,8.09,15.74,1.94,9.83,6.00,9.00,3.00,78.75,AdaptiveConvectionAlgorithm,AdaptiveConvectionAlgorithm,26.25,10.50,9.85,0.65,6,1,0,Yes
! <Zone Internal Gains Nominal>,Zone Name, Floor Area {m2},# Occupants,Area per Occupant {m2/person},Occupant per Area {person/m2},Interior Lighting {W/m2},Electric Load {W/m2},Gas Load {W/m2},Other Load {W/m2},Hot Water Eq {W/m2},Steam Equipment {W/m2},Sum Loads per Area {W/m2},Outdoor Controlled Baseboard Heat
 Zone Internal Gains Nominal, KITCHEN1.1,10.80,0.3,35.630,2.807E-002,6.000,4.300,0.000,0.000,0.000,0.000,10.300,No
 Zone Internal Gains Nominal, BEDROOM1.4,18.00,0.5,35.630,2.807E-002,3.000,4.300,0.000,0.000,0.000,0.000,7.300,No
 Zone Internal Gains Nominal, KITCHEN1.2,10.80,0.3,35.630,2.807E-002,6.000,4.300,0.000,0.000,0.000,0.000,10.300,No
 Zone Internal Gains Nominal, LIVINGROOM1.2,38.70,1.1,35.630,2.807E-002,5.000,4.300,0.000,0.000,0.000,0.000,9.300,No
 Zone Internal Gains Nominal, BEDROOM1.7,26.25,0.7,35.630,2.807E-002,3.000,4.300,0.000,0.000,0.000,0.000,7.300,No
 Zone Internal Gains Nominal, LIVINGROOM1.3,38.70,1.1,35.630,2.807E-002,5.000,4.300,0.000,0.000,0.000,0.000,9.300,No
 Zone Internal Gains Nominal, BEDROOM1.9,18.00,0.5,35.630,2.807E-002,3.000,4.300,0.000,0.000,0.000,0.000,7.300,No
 Zone Internal Gains Nominal, BEDROOM1.10,15.00,0.4,35.630,2.807E-002,3.000,4.300,0.000,0.000,0.000,0.000,7.300,No
 Zone Internal Gains Nominal, BEDROOM1.11,15.00,0.4,35.630,2.807E-002,3.000,4.300,0.000,0.000,0.000,0.000,7.300,No
 Zone Internal Gains Nominal, BEDROOM1.12,18.00,0.5,35.630,2.807E-002,3.000,4.300,0.000,0.000,0.000,0.000,7.300,No
 Zone Internal Gains Nominal, STAIRCASE1.1,49.00,0.0,N/A,0.000,0.000,0.000,0.000,0.000,0.000,0.000,0.000,No
 Zone Internal Gains Nominal, KITCHEN1.3,10.80,0.3,35.630,2.807E-002,6.000,4.300,0.000,0.000,0.000,0.000,10.300,No
 Zone Internal Gains Nominal, KITCHEN1.4,10.80,0.3,35.630,2.807E-002,6.000,4.300,0.000,0.000,0.000,0.000,10.300,No
 Zone Internal Gains Nominal, LIVINGROOM1.4,38.70,1.1,35.630,2.807E-002,5.000,4.300,0.000,0.000,0.000,0.000,9.300,No
 Zone Internal Gains Nominal, BEDROOM1.6,26.25,0.7,35.630,2.807E-002,3.000,4.300,0.000,0.000,0.000,0.000,7.300,No
 Zone Internal Gains Nominal, BEDROOM1.8,26.25,0.7,35.630,2.807E-002,3.000,4.300,0.000,0.000,0.000,0.000,7.300,No
 Zone Internal Gains Nominal, BEDROOM1.3,15.00,0.4,35.630,2.807E-002,3.000,4.300,0.000,0.000,0.000,0.000,7.300,No
 Zone Internal Gains Nominal, BEDROOM1.2,15.00,0.4,35.630,2.807E-002,3.000,4.300,0.000,0.000,0.000,0.000,7.300,No
 Zone Internal Gains Nominal, BEDROOM1.1,18.00,0.5,35.630,2.807E-002,3.000,4.300,0.000,0.000,0.000,0.000,7.300,No
 Zone Internal Gains Nominal, LIVINGROOM1.1,38.70,1.1,35.630,2.807E-002,5.000,4.300,0.000,0.000,0.000,0.000,9.300,No
 Zone Internal Gains Nominal, BEDROOM1.5,26.25,0.7,35.630,2.807E-002,3.000,4.300,0.000,0.000,0.000,0.000,7.300,No
 Zone Internal Gains Nominal, LIVINGROOM2.4,38.70,1.1,35.630,2.807E-002,5.000,4.300,0.000,0.000,0.000,0.000,9.300,No
 Zone Internal Gains Nominal, BEDROOM2.5,26.25,0.7,35.630,2.807E-002,3.000,4.300,0.000,0.000,0.000,0.000,7.300,No
 Zone Internal Gains Nominal, LIVINGROOM2.1,38.70,1.1,35.630,2.807E-002,5.000,4.300,0.000,0.000,0.000,0.000,9.300,No
 Zone Internal Gains Nominal, BEDROOM2.11,15.00,0.4,35.630,2.807E-002,3.000,4.300,0.000,0.000,0.000,0.000,7.300,No
 Zone Internal Gains Nominal, BEDROOM2.10,15.00,0.4,35.630,2.807E-002,3.000,4.300,0.000,0.000,0.000,0.000,7.300,No
 Zone Internal Gains Nominal, BEDROOM2.9,18.00,0.5,35.630,2.807E-002,3.000,4.300,0.000,0.000,0.000,0.000,7.300,No
 Zone Internal Gains Nominal, LIVINGROOM2.3,38.70,1.1,35.630,2.807E-002,5.000,4.300,0.000,0.000,0.000,0.000,9.300,No
 Zone Internal Gains Nominal, BEDROOM2.7,26.25,0.7,35.630,2.807E-002,3.000,4.300,0.000,0.000,0.000,0.000,7.300,No
 Zone Internal Gains Nominal, LIVINGROOM2.2,38.70,1.1,35.630,2.807E-002,5.000,4.300,0.000,0.000,0.000,0.000,9.300,No
 Zone Internal Gains Nominal, BEDROOM2.2,15.00,0.4,35.630,2.807E-002,3.000,4.300,0.000,0.000,0.000,0.000,7.300,No
 Zone Internal Gains Nominal, BEDROOM2.8,26.25,0.7,35.630,2.807E-002,3.000,4.300,0.000,0.000,0.000,0.000,7.300,No
 Zone Internal Gains Nominal, BEDROOM2.3,15.00,0.4,35.630,2.807E-002,3.000,4.300,0.000,0.000,0.000,0.000,7.300,No
 Zone Internal Gains Nominal, BEDROOM2.1,18.00,0.5,35.630,2.807E-002,3.000,4.300,0.000,0.000,0.000,0.000,7.300,No
 Zone Internal Gains Nominal, BEDROOM2.4,18.00,0.5,35.630,2.807E-002,3.000,4.300,0.000,0.000,0.000,0.000,7.300,No
 Zone Internal Gains Nominal, BEDROOM2.6,26.25,0.7,35.630,2.807E-002,3.000,4.300,0.000,0.000,0.000,0.000,7.300,No
 Zone Internal Gains Nominal, KITCHEN2.1,10.80,0.3,35.630,2.807E-002,6.000,4.300,0.000,0.000,0.000,0.000,10.300,No
 Zone Internal Gains Nominal, KITCHEN2.4,10.80,0.3,35.630,2.807E-002,6.000,4.300,0.000,0.000,0.000,0.000,10.300,No
 Zone Internal Gains Nominal, KITCHEN2.3,10.80,0.3,35.630,2.807E-002,6.000,4.300,0.000,0.000,0.000,0.000,10.300,No
 Zone Internal Gains Nominal, STAIRCASE2.1,49.00,0.0,N/A,0.000,0.000,0.000,0.000,0.000,0.000,0.000,0.000,No
 Zone Internal Gains Nominal, BEDROOM2.12,18.00,0.5,35.630,2.807E-002,3.000,4.300,0.000,0.000,0.000,0.000,7.300,No
 Zone Internal Gains Nominal, KITCHEN2.2,10.80,0.3,35.630,2.807E-002,6.000,4.300,0.000,0.000,0.000,0.000,10.300,No
 Zone Internal Gains Nominal, LIVINGROOM3.4,38.70,1.1,35.630,2.807E-002,5.000,4.300,0.000,0.000,0.000,0.000,9.300,No
 Zone Internal Gains Nominal, BEDROOM3.5,26.25,0.7,35.630,2.807E-002,3.000,4.300,0.000,0.000,0.000,0.000,7.300,No
 Zone Internal Gains Nominal, LIVINGROOM3.1,38.70,1.1,35.630,2.807E-002,5.000,4.300,0.000,0.000,0.000,0.000,9.300,No
 Zone Internal Gains Nominal, BEDROOM3.11,15.00,0.4,35.630,2.807E-002,3.000,4.300,0.000,0.000,0.000,0.000,7.300,No
 Zone Internal Gains Nominal, BEDROOM3.10,15.00,0.4,35.630,2.807E-002,3.000,4.300,0.000,0.000,0.000,0.000,7.300,No
 Zone Internal Gains Nominal, BEDROOM3.9,18.00,0.5,35.630,2.807E-002,3.000,4.300,0.000,0.000,0.000,0.000,7.300,No
 Zone Internal Gains Nominal, LIVINGROOM3.3,38.70,1.1,35.630,2.807E-002,5.000,4.300,0.000,0.000,0.000,0.000,9.300,No
 Zone Internal Gains Nominal, KITCHEN3.4,10.80,0.3,35.630,2.807E-002,6.000,4.300,0.000,0.000,0.000,0.000,10.300,No
 Zone Internal Gains Nominal, KITCHEN3.1,10.80,0.3,35.630,2.807E-002,6.000,4.300,0.000,0.000,0.000,0.000,10.300,No
 Zone Internal Gains Nominal, BEDROOM3.4,18.00,0.5,35.630,2.807E-002,3.000,4.300,0.000,0.000,0.000,0.000,7.300,No
 Zone Internal Gains Nominal, BEDROOM3.6,26.25,0.7,35.630,2.807E-002,3.000,4.300,0.000,0.000,0.000,0.000,7.300,No
 Zone Internal Gains Nominal, KITCHEN3.3,10.80,0.3,35.630,2.807E-002,6.000,4.300,0.000,0.000,0.000,0.000,10.300,No
 Zone Internal Gains Nominal, KITCHEN3.2,10.80,0.3,35.630,2.807E-002,6.000,4.300,0.000,0.000,0.000,0.000,10.300,No
 Zone Internal Gains Nominal, BEDROOM3.12,18.00,0.5,35.630,2.807E-002,3.000,4.300,0.000,0.000,0.000,0.000,7.300,No
 Zone Internal Gains Nominal, STAIRCASE3.1,49.00,0.0,N/A,0.000,0.000,0.000,0.000,0.000,0.000,0.000,0.000,No
 Zone Internal Gains Nominal, BEDROOM3.3,15.00,0.4,35.630,2.807E-002,3.000,4.300,0.000,0.000,0.000,0.000,7.300,No
 Zone Internal Gains Nominal, BEDROOM3.1,18.00,0.5,35.630,2.807E-002,3.000,4.300,0.000,0.000,0.000,0.000,7.300,No
 Zone Internal Gains Nominal, BEDROOM3.8,26.25,0.7,35.630,2.807E-002,3.000,4.300,0.000,0.000,0.000,0.000,7.300,No
 Zone Internal Gains Nominal, BEDROOM3.2,15.00,0.4,35.630,2.807E-002,3.000,4.300,0.000,0.000,0.000,0.000,7.300,No
 Zone Internal Gains Nominal, LIVINGROOM3.2,38.70,1.1,35.630,2.807E-002,5.000,4.300,0.000,0.000,0.000,0.000,9.300,No
 Zone Internal Gains Nominal, BEDROOM3.7,26.25,0.7,35.630,2.807E-002,3.000,4.300,0.000,0.000,0.000,0.000,7.300,No
! <People Internal Gains Nominal>,Name,Schedule Name,Zone Name,Zone Floor Area {m2},# Zone Occupants,Number of People {},People/Floor Area {person/m2},Floor Area per person {m2/person},Fraction Radiant,Fraction Convected,Sensible Fraction Calculation,Activity level,ASHRAE 55 Warnings,Carbon Dioxide Generation Rate,Nominal Minimum Number of People,Nominal Maximum Number of People
 People Internal Gains Nominal, BEDROOM3.2,BEDROOM OCCUPANCY,BEDROOM3.2,15.00,0.4,0.4,2.807E-002,35.630,0.200,0.800,AutoCalculate,ACTIVITY_ZUOZI HUODONG,No,3.8200E-008,0,0
 People Internal Gains Nominal, KITCHEN1.1,CHUFANG OCCUPANCY,KITCHEN1.1,10.80,0.3,0.3,2.807E-002,35.630,0.200,0.800,AutoCalculate,ACTIVITY_ZUOZI HUODONG,No,3.8200E-008,0,0
 People Internal Gains Nominal, KITCHEN1.2,CHUFANG OCCUPANCY,KITCHEN1.2,10.80,0.3,0.3,2.807E-002,35.630,0.200,0.800,AutoCalculate,ACTIVITY_ZUOZI HUODONG,No,3.8200E-008,0,0
 People Internal Gains Nominal, KITCHEN1.3,CHUFANG OCCUPANCY,KITCHEN1.3,10.80,0.3,0.3,2.807E-002,35.630,0.200,0.800,AutoCalculate,ACTIVITY_ZUOZI HUODONG,No,3.8200E-008,0,0
 People Internal Gains Nominal, KITCHEN1.4,CHUFANG OCCUPANCY,KITCHEN1.4,10.80,0.3,0.3,2.807E-002,35.630,0.200,0.800,AutoCalculate,ACTIVITY_ZUOZI HUODONG,No,3.8200E-008,0,0
 People Internal Gains Nominal, LIVINGROOM1.1,KETING OCCUPANCY,LIVINGROOM1.1,38.70,1.1,1.1,2.807E-002,35.630,0.200,0.800,AutoCalculate,ACTIVITY_ZUOZI HUODONG,No,3.8200E-008,0,1
 People Internal Gains Nominal, LIVINGROOM1.2,KETING OCCUPANCY,LIVINGROOM1.2,38.70,1.1,1.1,2.807E-002,35.630,0.200,0.800,AutoCalculate,ACTIVITY_ZUOZI HUODONG,No,3.8200E-008,0,1
 People Internal Gains Nominal, LIVINGROOM1.3,KETING OCCUPANCY,LIVINGROOM1.3,38.70,1.1,1.1,2.807E-002,35.630,0.200,0.800,AutoCalculate,ACTIVITY_ZUOZI HUODONG,No,3.8200E-008,0,1
 People Internal Gains Nominal, LIVINGROOM1.4,KETING OCCUPANCY,LIVINGROOM1.4,38.70,1.1,1.1,2.807E-002,35.630,0.200,0.800,AutoCalculate,ACTIVITY_ZUOZI HUODONG,No,3.8200E-008,0,1
 People Internal Gains Nominal, BEDROOM1.1,BEDROOM OCCUPANCY,BEDROOM1.1,18.00,0.5,0.5,2.807E-002,35.630,0.200,0.800,AutoCalculate,ACTIVITY_ZUOZI HUODONG,No,3.8200E-008,0,1
 People Internal Gains Nominal, BEDROOM1.2,BEDROOM OCCUPANCY,BEDROOM1.2,15.00,0.4,0.4,2.807E-002,35.630,0.200,0.800,AutoCalculate,ACTIVITY_ZUOZI HUODONG,No,3.8200E-008,0,0
 People Internal Gains Nominal, BEDROOM1.3,BEDROOM OCCUPANCY,BEDROOM1.3,15.00,0.4,0.4,2.807E-002,35.630,0.200,0.800,AutoCalculate,ACTIVITY_ZUOZI HUODONG,No,3.8200E-008,0,0
 People Internal Gains Nominal, BEDROOM1.4,BEDROOM OCCUPANCY,BEDROOM1.4,18.00,0.5,0.5,2.807E-002,35.630,0.200,0.800,AutoCalculate,ACTIVITY_ZUOZI HUODONG,No,3.8200E-008,0,1
 People Internal Gains Nominal, BEDROOM1.5,BEDROOM OCCUPANCY,BEDROOM1.5,26.25,0.7,0.7,2.807E-002,35.630,0.200,0.800,AutoCalculate,ACTIVITY_ZUOZI HUODONG,No,3.8200E-008,0,1
 People Internal Gains Nominal, BEDROOM1.6,BEDROOM OCCUPANCY,BEDROOM1.6,26.25,0.7,0.7,2.807E-002,35.630,0.200,0.800,AutoCalculate,ACTIVITY_ZUOZI HUODONG,No,3.8200E-008,0,1
 People Internal Gains Nominal, BEDROOM1.7,BEDROOM OCCUPANCY,BEDROOM1.7,26.25,0.7,0.7,2.807E-002,35.630,0.200,0.800,AutoCalculate,ACTIVITY_ZUOZI HUODONG,No,3.8200E-008,0,1
 People Internal Gains Nominal, BEDROOM1.8,BEDROOM OCCUPANCY,BEDROOM1.8,26.25,0.7,0.7,2.807E-002,35.630,0.200,0.800,AutoCalculate,ACTIVITY_ZUOZI HUODONG,No,3.8200E-008,0,1
 People Internal Gains Nominal, BEDROOM1.9,BEDROOM OCCUPANCY,BEDROOM1.9,18.00,0.5,0.5,2.807E-002,35.630,0.200,0.800,AutoCalculate,ACTIVITY_ZUOZI HUODONG,No,3.8200E-008,0,1
 People Internal Gains Nominal, BEDROOM1.10,BEDROOM OCCUPANCY,BEDROOM1.10,15.00,0.4,0.4,2.807E-002,35.630,0.200,0.800,AutoCalculate,ACTIVITY_ZUOZI HUODONG,No,3.8200E-008,0,0
 People Internal Gains Nominal, BEDROOM1.11,BEDROOM OCCUPANCY,BEDROOM1.11,15.00,0.4,0.4,2.807E-002,35.630,0.200,0.800,AutoCalculate,ACTIVITY_ZUOZI HUODONG,No,3.8200E-008,0,0
 People Internal Gains Nominal, BEDROOM1.12,BEDROOM OCCUPANCY,BEDROOM1.12,18.00,0.5,0.5,2.807E-002,35.630,0.200,0.800,AutoCalculate,ACTIVITY_ZUOZI HUODONG,No,3.8200E-008,0,1
 People Internal Gains Nominal, KITCHEN2.1,CHUFANG OCCUPANCY,KITCHEN2.1,10.80,0.3,0.3,2.807E-002,35.630,0.200,0.800,AutoCalculate,ACTIVITY_ZUOZI HUODONG,No,3.8200E-008,0,0
 People Internal Gains Nominal, KITCHEN2.2,CHUFANG OCCUPANCY,KITCHEN2.2,10.80,0.3,0.3,2.807E-002,35.630,0.200,0.800,AutoCalculate,ACTIVITY_ZUOZI HUODONG,No,3.8200E-008,0,0
 People Internal Gains Nominal, KITCHEN2.3,CHUFANG OCCUPANCY,KITCHEN2.3,10.80,0.3,0.3,2.807E-002,35.630,0.200,0.800,AutoCalculate,ACTIVITY_ZUOZI HUODONG,No,3.8200E-008,0,0
 People Internal Gains Nominal, KITCHEN2.4,CHUFANG OCCUPANCY,KITCHEN2.4,10.80,0.3,0.3,2.807E-002,35.630,0.200,0.800,AutoCalculate,ACTIVITY_ZUOZI HUODONG,No,3.8200E-008,0,0
 People Internal Gains Nominal, LIVINGROOM2.1,KETING OCCUPANCY,LIVINGROOM2.1,38.70,1.1,1.1,2.807E-002,35.630,0.200,0.800,AutoCalculate,ACTIVITY_ZUOZI HUODONG,No,3.8200E-008,0,1
 People Internal Gains Nominal, LIVINGROOM2.2,KETING OCCUPANCY,LIVINGROOM2.2,38.70,1.1,1.1,2.807E-002,35.630,0.200,0.800,AutoCalculate,ACTIVITY_ZUOZI HUODONG,No,3.8200E-008,0,1
 People Internal Gains Nominal, LIVINGROOM2.3,KETING OCCUPANCY,LIVINGROOM2.3,38.70,1.1,1.1,2.807E-002,35.630,0.200,0.800,AutoCalculate,ACTIVITY_ZUOZI HUODONG,No,3.8200E-008,0,1
 People Internal Gains Nominal, LIVINGROOM2.4,KETING OCCUPANCY,LIVINGROOM2.4,38.70,1.1,1.1,2.807E-002,35.630,0.200,0.800,AutoCalculate,ACTIVITY_ZUOZI HUODONG,No,3.8200E-008,0,1
 People Internal Gains Nominal, BEDROOM2.1,BEDROOM OCCUPANCY,BEDROOM2.1,18.00,0.5,0.5,2.807E-002,35.630,0.200,0.800,AutoCalculate,ACTIVITY_ZUOZI HUODONG,No,3.8200E-008,0,1
 People Internal Gains Nominal, BEDROOM2.3,BEDROOM OCCUPANCY,BEDROOM2.3,15.00,0.4,0.4,2.807E-002,35.630,0.200,0.800,AutoCalculate,ACTIVITY_ZUOZI HUODONG,No,3.8200E-008,0,0
 People Internal Gains Nominal, BEDROOM2.4,BEDROOM OCCUPANCY,BEDROOM2.4,18.00,0.5,0.5,2.807E-002,35.630,0.200,0.800,AutoCalculate,ACTIVITY_ZUOZI HUODONG,No,3.8200E-008,0,1
 People Internal Gains Nominal, BEDROOM2.5,BEDROOM OCCUPANCY,BEDROOM2.5,26.25,0.7,0.7,2.807E-002,35.630,0.200,0.800,AutoCalculate,ACTIVITY_ZUOZI HUODONG,No,3.8200E-008,0,1
 People Internal Gains Nominal, BEDROOM2.6,BEDROOM OCCUPANCY,BEDROOM2.6,26.25,0.7,0.7,2.807E-002,35.630,0.200,0.800,AutoCalculate,ACTIVITY_ZUOZI HUODONG,No,3.8200E-008,0,1
 People Internal Gains Nominal, BEDROOM2.7,BEDROOM OCCUPANCY,BEDROOM2.7,26.25,0.7,0.7,2.807E-002,35.630,0.200,0.800,AutoCalculate,ACTIVITY_ZUOZI HUODONG,No,3.8200E-008,0,1
 People Internal Gains Nominal, BEDROOM2.8,BEDROOM OCCUPANCY,BEDROOM2.8,26.25,0.7,0.7,2.807E-002,35.630,0.200,0.800,AutoCalculate,ACTIVITY_ZUOZI HUODONG,No,3.8200E-008,0,1
 People Internal Gains Nominal, BEDROOM2.9,BEDROOM OCCUPANCY,BEDROOM2.9,18.00,0.5,0.5,2.807E-002,35.630,0.200,0.800,AutoCalculate,ACTIVITY_ZUOZI HUODONG,No,3.8200E-008,0,1
 People Internal Gains Nominal, BEDROOM2.10,BEDROOM OCCUPANCY,BEDROOM2.10,15.00,0.4,0.4,2.807E-002,35.630,0.200,0.800,AutoCalculate,ACTIVITY_ZUOZI HUODONG,No,3.8200E-008,0,0
 People Internal Gains Nominal, BEDROOM2.11,BEDROOM OCCUPANCY,BEDROOM2.11,15.00,0.4,0.4,2.807E-002,35.630,0.200,0.800,AutoCalculate,ACTIVITY_ZUOZI HUODONG,No,3.8200E-008,0,0
 People Internal Gains Nominal, BEDROOM2.12,BEDROOM OCCUPANCY,BEDROOM2.12,18.00,0.5,0.5,2.807E-002,35.630,0.200,0.800,AutoCalculate,ACTIVITY_ZUOZI HUODONG,No,3.8200E-008,0,1
 People Internal Gains Nominal, KITCHEN3.1,CHUFANG OCCUPANCY,KITCHEN3.1,10.80,0.3,0.3,2.807E-002,35.630,0.200,0.800,AutoCalculate,ACTIVITY_ZUOZI HUODONG,No,3.8200E-008,0,0
 People Internal Gains Nominal, KITCHEN3.2,CHUFANG OCCUPANCY,KITCHEN3.2,10.80,0.3,0.3,2.807E-002,35.630,0.200,0.800,AutoCalculate,ACTIVITY_ZUOZI HUODONG,No,3.8200E-008,0,0
 People Internal Gains Nominal, KITCHEN3.3,CHUFANG OCCUPANCY,KITCHEN3.3,10.80,0.3,0.3,2.807E-002,35.630,0.200,0.800,AutoCalculate,ACTIVITY_ZUOZI HUODONG,No,3.8200E-008,0,0
 People Internal Gains Nominal, KITCHEN3.4,CHUFANG OCCUPANCY,KITCHEN3.4,10.80,0.3,0.3,2.807E-002,35.630,0.200,0.800,AutoCalculate,ACTIVITY_ZUOZI HUODONG,No,3.8200E-008,0,0
 People Internal Gains Nominal, LIVINGROOM3.1,KETING OCCUPANCY,LIVINGROOM3.1,38.70,1.1,1.1,2.807E-002,35.630,0.200,0.800,AutoCalculate,ACTIVITY_ZUOZI HUODONG,No,3.8200E-008,0,1
 People Internal Gains Nominal, LIVINGROOM3.2,KETING OCCUPANCY,LIVINGROOM3.2,38.70,1.1,1.1,2.807E-002,35.630,0.200,0.800,AutoCalculate,ACTIVITY_ZUOZI HUODONG,No,3.8200E-008,0,1
 People Internal Gains Nominal, LIVINGROOM3.3,KETING OCCUPANCY,LIVINGROOM3.3,38.70,1.1,1.1,2.807E-002,35.630,0.200,0.800,AutoCalculate,ACTIVITY_ZUOZI HUODONG,No,3.8200E-008,0,1
 People Internal Gains Nominal, LIVINGROOM3.4,KETING OCCUPANCY,LIVINGROOM3.4,38.70,1.1,1.1,2.807E-002,35.630,0.200,0.800,AutoCalculate,ACTIVITY_ZUOZI HUODONG,No,3.8200E-008,0,1
 People Internal Gains Nominal, BEDROOM3.1,BEDROOM OCCUPANCY,BEDROOM3.1,18.00,0.5,0.5,2.807E-002,35.630,0.200,0.800,AutoCalculate,ACTIVITY_ZUOZI HUODONG,No,3.8200E-008,0,1
 People Internal Gains Nominal, BEDROOM3.3,BEDROOM OCCUPANCY,BEDROOM3.3,15.00,0.4,0.4,2.807E-002,35.630,0.200,0.800,AutoCalculate,ACTIVITY_ZUOZI HUODONG,No,3.8200E-008,0,0
 People Internal Gains Nominal, BEDROOM3.4,BEDROOM OCCUPANCY,BEDROOM3.4,18.00,0.5,0.5,2.807E-002,35.630,0.200,0.800,AutoCalculate,ACTIVITY_ZUOZI HUODONG,No,3.8200E-008,0,1
 People Internal Gains Nominal, BEDROOM3.5,BEDROOM OCCUPANCY,BEDROOM3.5,26.25,0.7,0.7,2.807E-002,35.630,0.200,0.800,AutoCalculate,ACTIVITY_ZUOZI HUODONG,No,3.8200E-008,0,1
 People Internal Gains Nominal, BEDROOM3.6,BEDROOM OCCUPANCY,BEDROOM3.6,26.25,0.7,0.7,2.807E-002,35.630,0.200,0.800,AutoCalculate,ACTIVITY_ZUOZI HUODONG,No,3.8200E-008,0,1
 People Internal Gains Nominal, BEDROOM3.7,BEDROOM OCCUPANCY,BEDROOM3.7,26.25,0.7,0.7,2.807E-002,35.630,0.200,0.800,AutoCalculate,ACTIVITY_ZUOZI HUODONG,No,3.8200E-008,0,1
 People Internal Gains Nominal, BEDROOM3.8,BEDROOM OCCUPANCY,BEDROOM3.8,26.25,0.7,0.7,2.807E-002,35.630,0.200,0.800,AutoCalculate,ACTIVITY_ZUOZI HUODONG,No,3.8200E-008,0,1
 People Internal Gains Nominal, BEDROOM3.9,BEDROOM OCCUPANCY,BEDROOM3.9,18.00,0.5,0.5,2.807E-002,35.630,0.200,0.800,AutoCalculate,ACTIVITY_ZUOZI HUODONG,No,3.8200E-008,0,1
 People Internal Gains Nominal, BEDROOM3.10,BEDROOM OCCUPANCY,BEDROOM3.10,15.00,0.4,0.4,2.807E-002,35.630,0.200,0.800,AutoCalculate,ACTIVITY_ZUOZI HUODONG,No,3.8200E-008,0,0
 People Internal Gains Nominal, BEDROOM3.11,BEDROOM OCCUPANCY,BEDROOM3.11,15.00,0.4,0.4,2.807E-002,35.630,0.200,0.800,AutoCalculate,ACTIVITY_ZUOZI HUODONG,No,3.8200E-008,0,0
 People Internal Gains Nominal, BEDROOM3.12,BEDROOM OCCUPANCY,BEDROOM3.12,18.00,0.5,0.5,2.807E-002,35.630,0.200,0.800,AutoCalculate,ACTIVITY_ZUOZI HUODONG,No,3.8200E-008,0,1
 People Internal Gains Nominal, BEDROOM2.2,BEDROOM OCCUPANCY,BEDROOM2.2,15.00,0.4,0.4,2.807E-002,35.630,0.200,0.800,AutoCalculate,ACTIVITY_ZUOZI HUODONG,No,3.8200E-008,0,0,Zone Averaged,WORK EFFICIENCY,Clothing Insulation Schedule,N/A,CLOTHING INSULATION SCHEDULE,AIR VELOCITY SCHEDULE,Yes,No,No
! <Lights Internal Gains Nominal>,Name,Schedule Name,Zone Name,Zone Floor Area {m2},# Zone Occupants,Lighting Level {W},Lights/Floor Area {W/m2},Lights per person {W/person},Fraction Return Air,Fraction Radiant,Fraction Short Wave,Fraction Convected,Fraction Replaceable,End-Use Category,Nominal Minimum Lighting Level {W},Nominal Maximum Lighting Level {W}
 Lights Internal Gains Nominal, KITCHEN1.1,LIGHTING CHUFANG,KITCHEN1.1,10.80,0.3,64.800,6.000,213.780,0.000,0.720,0.180,0.100,1.000,General,0.000,51.840
 Lights Internal Gains Nominal, KITCHEN1.2,LIGHTING CHUFANG,KITCHEN1.2,10.80,0.3,64.800,6.000,213.780,0.000,0.720,0.180,0.100,1.000,General,0.000,51.840
 Lights Internal Gains Nominal, KITCHEN1.3,LIGHTING CHUFANG,KITCHEN1.3,10.80,0.3,64.800,6.000,213.780,0.000,0.720,0.180,0.100,1.000,General,0.000,51.840
 Lights Internal Gains Nominal, KITCHEN1.4,LIGHTING CHUFANG,KITCHEN1.4,10.80,0.3,64.800,6.000,213.780,0.000,0.720,0.180,0.100,1.000,General,0.000,51.840
 Lights Internal Gains Nominal, LIVINGROOM1.1,LIGHT-KETING,LIVINGROOM1.1,38.70,1.1,193.500,5.000,178.150,0.000,0.720,0.180,0.100,1.000,General,0.000,193.500
 Lights Internal Gains Nominal, LIVINGROOM1.2,LIGHT-KETING,LIVINGROOM1.2,38.70,1.1,193.500,5.000,178.150,0.000,0.720,0.180,0.100,1.000,General,0.000,193.500
 Lights Internal Gains Nominal, LIVINGROOM1.3,LIGHT-KETING,LIVINGROOM1.3,38.70,1.1,193.500,5.000,178.150,0.000,0.720,0.180,0.100,1.000,General,0.000,193.500
 Lights Internal Gains Nominal, LIVINGROOM1.4,LIGHT-KETING,LIVINGROOM1.4,38.70,1.1,193.500,5.000,178.150,0.000,0.720,0.180,0.100,1.000,General,0.000,193.500
 Lights Internal Gains Nominal, BEDROOM1.1,LIGHT-BEDROOM,BEDROOM1.1,18.00,0.5,54.000,3.000,106.890,0.000,0.720,0.180,0.100,1.000,General,0.000,54.000
 Lights Internal Gains Nominal, BEDROOM1.2,LIGHT-BEDROOM,BEDROOM1.2,15.00,0.4,45.000,3.000,106.890,0.000,0.720,0.180,0.100,1.000,General,0.000,45.000
 Lights Internal Gains Nominal, BEDROOM1.3,LIGHT-BEDROOM,BEDROOM1.3,15.00,0.4,45.000,3.000,106.890,0.000,0.720,0.180,0.100,1.000,General,0.000,45.000
 Lights Internal Gains Nominal, BEDROOM1.4,LIGHT-BEDROOM,BEDROOM1.4,18.00,0.5,54.000,3.000,106.890,0.000,0.720,0.180,0.100,1.000,General,0.000,54.000
 Lights Internal Gains Nominal, BEDROOM1.5,LIGHT-BEDROOM,BEDROOM1.5,26.25,0.7,78.750,3.000,106.890,0.000,0.720,0.180,0.100,1.000,General,0.000,78.750
 Lights Internal Gains Nominal, BEDROOM1.6,LIGHT-BEDROOM,BEDROOM1.6,26.25,0.7,78.750,3.000,106.890,0.000,0.720,0.180,0.100,1.000,General,0.000,78.750
 Lights Internal Gains Nominal, BEDROOM1.7,LIGHT-BEDROOM,BEDROOM1.7,26.25,0.7,78.750,3.000,106.890,0.000,0.720,0.180,0.100,1.000,General,0.000,78.750
 Lights Internal Gains Nominal, BEDROOM1.8,LIGHT-BEDROOM,BEDROOM1.8,26.25,0.7,78.750,3.000,106.890,0.000,0.720,0.180,0.100,1.000,General,0.000,78.750
 Lights Internal Gains Nominal, BEDROOM1.9,LIGHT-BEDROOM,BEDROOM1.9,18.00,0.5,54.000,3.000,106.890,0.000,0.720,0.180,0.100,1.000,General,0.000,54.000
 Lights Internal Gains Nominal, BEDROOM1.10,LIGHT-BEDROOM,BEDROOM1.10,15.00,0.4,45.000,3.000,106.890,0.000,0.720,0.180,0.100,1.000,General,0.000,45.000
 Lights Internal Gains Nominal, BEDROOM1.11,LIGHT-BEDROOM,BEDROOM1.11,15.00,0.4,45.000,3.000,106.890,0.000,0.720,0.180,0.100,1.000,General,0.000,45.000
 Lights Internal Gains Nominal, BEDROOM1.12,LIGHT-BEDROOM,BEDROOM1.12,18.00,0.5,54.000,3.000,106.890,0.000,0.720,0.180,0.100,1.000,General,0.000,54.000
 Lights Internal Gains Nominal, KITCHEN2.1,LIGHTING CHUFANG,KITCHEN2.1,10.80,0.3,64.800,6.000,213.780,0.000,0.720,0.180,0.100,1.000,General,0.000,51.840
 Lights Internal Gains Nominal, KITCHEN2.2,LIGHTING CHUFANG,KITCHEN2.2,10.80,0.3,64.800,6.000,213.780,0.000,0.720,0.180,0.100,1.000,General,0.000,51.840
 Lights Internal Gains Nominal, KITCHEN2.3,LIGHTING CHUFANG,KITCHEN2.3,10.80,0.3,64.800,6.000,213.780,0.000,0.720,0.180,0.100,1.000,General,0.000,51.840
 Lights Internal Gains Nominal, KITCHEN2.4,LIGHTING CHUFANG,KITCHEN2.4,10.80,0.3,64.800,6.000,213.780,0.000,0.720,0.180,0.100,1.000,General,0.000,51.840
 Lights Internal Gains Nominal, LIVINGROOM2.1,LIGHT-KETING,LIVINGROOM2.1,38.70,1.1,193.500,5.000,178.150,0.000,0.720,0.180,0.100,1.000,General,0.000,193.500
 Lights Internal Gains Nominal, LIVINGROOM2.2,LIGHT-KETING,LIVINGROOM2.2,38.70,1.1,193.500,5.000,178.150,0.000,0.720,0.180,0.100,1.000,General,0.000,193.500
 Lights Internal Gains Nominal, LIVINGROOM2.3,LIGHT-KETING,LIVINGROOM2.3,38.70,1.1,193.500,5.000,178.150,0.000,0.720,0.180,0.100,1.000,General,0.000,193.500
 Lights Internal Gains Nominal, LIVINGROOM2.4,LIGHT-KETING,LIVINGROOM2.4,38.70,1.1,193.500,5.000,178.150,0.000,0.720,0.180,0.100,1.000,General,0.000,193.500
 Lights Internal Gains Nominal, BEDROOM2.1,LIGHT-BEDROOM,BEDROOM2.1,18.00,0.5,54.000,3.000,106.890,0.000,0.720,0.180,0.100,1.000,General,0.000,54.000
 Lights Internal Gains Nominal, BEDROOM2.2,LIGHT-BEDROOM,BEDROOM2.2,15.00,0.4,45.000,3.000,106.890,0.000,0.720,0.180,0.100,1.000,General,0.000,45.000
 Lights Internal Gains Nominal, BEDROOM2.3,LIGHT-BEDROOM,BEDROOM2.3,15.00,0.4,45.000,3.000,106.890,0.000,0.720,0.180,0.100,1.000,General,0.000,45.000
 Lights Internal Gains Nominal, BEDROOM2.4,LIGHT-BEDROOM,BEDROOM2.4,18.00,0.5,54.000,3.000,106.890,0.000,0.720,0.180,0.100,1.000,General,0.000,54.000
 Lights Internal Gains Nominal, BEDROOM2.5,LIGHT-BEDROOM,BEDROOM2.5,26.25,0.7,78.750,3.000,106.890,0.000,0.720,0.180,0.100,1.000,General,0.000,78.750
 Lights Internal Gains Nominal, BEDROOM2.6,LIGHT-BEDROOM,BEDROOM2.6,26.25,0.7,78.750,3.000,106.890,0.000,0.720,0.180,0.100,1.000,General,0.000,78.750
 Lights Internal Gains Nominal, BEDROOM2.7,LIGHT-BEDROOM,BEDROOM2.7,26.25,0.7,78.750,3.000,106.890,0.000,0.720,0.180,0.100,1.000,General,0.000,78.750
 Lights Internal Gains Nominal, BEDROOM2.8,LIGHT-BEDROOM,BEDROOM2.8,26.25,0.7,78.750,3.000,106.890,0.000,0.720,0.180,0.100,1.000,General,0.000,78.750
 Lights Internal Gains Nominal, BEDROOM2.9,LIGHT-BEDROOM,BEDROOM2.9,18.00,0.5,54.000,3.000,106.890,0.000,0.720,0.180,0.100,1.000,General,0.000,54.000
 Lights Internal Gains Nominal, BEDROOM2.10,LIGHT-BEDROOM,BEDROOM2.10,15.00,0.4,45.000,3.000,106.890,0.000,0.720,0.180,0.100,1.000,General,0.000,45.000
 Lights Internal Gains Nominal, BEDROOM2.11,LIGHT-BEDROOM,BEDROOM2.11,15.00,0.4,45.000,3.000,106.890,0.000,0.720,0.180,0.100,1.000,General,0.000,45.000
 Lights Internal Gains Nominal, BEDROOM2.12,LIGHT-BEDROOM,BEDROOM2.12,18.00,0.5,54.000,3.000,106.890,0.000,0.720,0.180,0.100,1.000,General,0.000,54.000
 Lights Internal Gains Nominal, KITCHEN3.1,LIGHTING CHUFANG,KITCHEN3.1,10.80,0.3,64.800,6.000,213.780,0.000,0.720,0.180,0.100,1.000,General,0.000,51.840
 Lights Internal Gains Nominal, KITCHEN3.2,LIGHTING CHUFANG,KITCHEN3.2,10.80,0.3,64.800,6.000,213.780,0.000,0.720,0.180,0.100,1.000,General,0.000,51.840
 Lights Internal Gains Nominal, KITCHEN3.3,LIGHTING CHUFANG,KITCHEN3.3,10.80,0.3,64.800,6.000,213.780,0.000,0.720,0.180,0.100,1.000,General,0.000,51.840
 Lights Internal Gains Nominal, KITCHEN3.4,LIGHTING CHUFANG,KITCHEN3.4,10.80,0.3,64.800,6.000,213.780,0.000,0.720,0.180,0.100,1.000,General,0.000,51.840
 Lights Internal Gains Nominal, LIVINGROOM3.1,LIGHT-KETING,LIVINGROOM3.1,38.70,1.1,193.500,5.000,178.150,0.000,0.720,0.180,0.100,1.000,General,0.000,193.500
 Lights Internal Gains Nominal, LIVINGROOM3.2,LIGHT-KETING,LIVINGROOM3.2,38.70,1.1,193.500,5.000,178.150,0.000,0.720,0.180,0.100,1.000,General,0.000,193.500
 Lights Internal Gains Nominal, LIVINGROOM3.3,LIGHT-KETING,LIVINGROOM3.3,38.70,1.1,193.500,5.000,178.150,0.000,0.720,0.180,0.100,1.000,General,0.000,193.500
 Lights Internal Gains Nominal, LIVINGROOM3.4,LIGHT-KETING,LIVINGROOM3.4,38.70,1.1,193.500,5.000,178.150,0.000,0.720,0.180,0.100,1.000,General,0.000,193.500
 Lights Internal Gains Nominal, BEDROOM3.1,LIGHT-BEDROOM,BEDROOM3.1,18.00,0.5,54.000,3.000,106.890,0.000,0.720,0.180,0.100,1.000,General,0.000,54.000
 Lights Internal Gains Nominal, BEDROOM3.2,LIGHT-BEDROOM,BEDROOM3.2,15.00,0.4,45.000,3.000,106.890,0.000,0.720,0.180,0.100,1.000,General,0.000,45.000
 Lights Internal Gains Nominal, BEDROOM3.3,LIGHT-BEDROOM,BEDROOM3.3,15.00,0.4,45.000,3.000,106.890,0.000,0.720,0.180,0.100,1.000,General,0.000,45.000
 Lights Internal Gains Nominal, BEDROOM3.4,LIGHT-BEDROOM,BEDROOM3.4,18.00,0.5,54.000,3.000,106.890,0.000,0.720,0.180,0.100,1.000,General,0.000,54.000
 Lights Internal Gains Nominal, BEDROOM3.5,LIGHT-BEDROOM,BEDROOM3.5,26.25,0.7,78.750,3.000,106.890,0.000,0.720,0.180,0.100,1.000,General,0.000,78.750
 Lights Internal Gains Nominal, BEDROOM3.6,LIGHT-BEDROOM,BEDROOM3.6,26.25,0.7,78.750,3.000,106.890,0.000,0.720,0.180,0.100,1.000,General,0.000,78.750
 Lights Internal Gains Nominal, BEDROOM3.7,LIGHT-BEDROOM,BEDROOM3.7,26.25,0.7,78.750,3.000,106.890,0.000,0.720,0.180,0.100,1.000,General,0.000,78.750
 Lights Internal Gains Nominal, BEDROOM3.8,LIGHT-BEDROOM,BEDROOM3.8,26.25,0.7,78.750,3.000,106.890,0.000,0.720,0.180,0.100,1.000,General,0.000,78.750
 Lights Internal Gains Nominal, BEDROOM3.9,LIGHT-BEDROOM,BEDROOM3.9,18.00,0.5,54.000,3.000,106.890,0.000,0.720,0.180,0.100,1.000,General,0.000,54.000
 Lights Internal Gains Nominal, BEDROOM3.10,LIGHT-BEDROOM,BEDROOM3.10,15.00,0.4,45.000,3.000,106.890,0.000,0.720,0.180,0.100,1.000,General,0.000,45.000
 Lights Internal Gains Nominal, BEDROOM3.11,LIGHT-BEDROOM,BEDROOM3.11,15.00,0.4,45.000,3.000,106.890,0.000,0.720,0.180,0.100,1.000,General,0.000,45.000
 Lights Internal Gains Nominal, BEDROOM3.12,LIGHT-BEDROOM,BEDROOM3.12,18.00,0.5,54.000,3.000,106.890,0.000,0.720,0.180,0.100,1.000,General,0.000,54.000
! <ElectricEquipment Internal Gains Nominal>,Name,Schedule Name,Zone Name,Zone Floor Area {m2},# Zone Occupants,Equipment Level {W},Equipment/Floor Area {W/m2},Equipment per person {W/person},Fraction Latent,Fraction Radiant,Fraction Lost,Fraction Convected,End-Use SubCategory,Nominal Minimum Equipment Level {W},Nominal Maximum Equipment Level {W}
 ElectricEquipment Internal Gains Nominal, KITCHEN1.1,EQUIPMENT CHUFANG,KITCHEN1.1,10.80,0.3,46.440,4.300,153.209,0.000,0.250,0.000,0.750,General,0.000,46.440
 ElectricEquipment Internal Gains Nominal, KITCHEN1.2,EQUIPMENT CHUFANG,KITCHEN1.2,10.80,0.3,46.440,4.300,153.209,0.000,0.250,0.000,0.750,General,0.000,46.440
 ElectricEquipment Internal Gains Nominal, KITCHEN1.3,EQUIPMENT CHUFANG,KITCHEN1.3,10.80,0.3,46.440,4.300,153.209,0.000,0.250,0.000,0.750,General,0.000,46.440
 ElectricEquipment Internal Gains Nominal, KITCHEN1.4,EQUIPMENT CHUFANG,KITCHEN1.4,10.80,0.3,46.440,4.300,153.209,0.000,0.250,0.000,0.750,General,0.000,46.440
 ElectricEquipment Internal Gains Nominal, LIVINGROOM1.1,EQUIPMENT-KETING,LIVINGROOM1.1,38.70,1.1,166.410,4.300,153.209,0.000,0.250,0.000,0.750,General,37.609,166.410
 ElectricEquipment Internal Gains Nominal, LIVINGROOM1.2,EQUIPMENT-KETING,LIVINGROOM1.2,38.70,1.1,166.410,4.300,153.209,0.000,0.250,0.000,0.750,General,37.609,166.410
 ElectricEquipment Internal Gains Nominal, LIVINGROOM1.3,EQUIPMENT-KETING,LIVINGROOM1.3,38.70,1.1,166.410,4.300,153.209,0.000,0.250,0.000,0.750,General,37.609,166.410
 ElectricEquipment Internal Gains Nominal, LIVINGROOM1.4,EQUIPMENT-KETING,LIVINGROOM1.4,38.70,1.1,166.410,4.300,153.209,0.000,0.250,0.000,0.750,General,37.609,166.410
 ElectricEquipment Internal Gains Nominal, BEDROOM1.1,EQUIPMENT-BEDROOM,BEDROOM1.1,18.00,0.5,77.400,4.300,153.209,0.000,0.250,0.000,0.750,General,0.000,77.400
 ElectricEquipment Internal Gains Nominal, BEDROOM1.2,EQUIPMENT-BEDROOM,BEDROOM1.2,15.00,0.4,64.500,4.300,153.209,0.000,0.250,0.000,0.750,General,0.000,64.500
 ElectricEquipment Internal Gains Nominal, BEDROOM1.3,EQUIPMENT-BEDROOM,BEDROOM1.3,15.00,0.4,64.500,4.300,153.209,0.000,0.250,0.000,0.750,General,0.000,64.500
 ElectricEquipment Internal Gains Nominal, BEDROOM1.4,EQUIPMENT-BEDROOM,BEDROOM1.4,18.00,0.5,77.400,4.300,153.209,0.000,0.250,0.000,0.750,General,0.000,77.400
 ElectricEquipment Internal Gains Nominal, BEDROOM1.5,EQUIPMENT-BEDROOM,BEDROOM1.5,26.25,0.7,112.875,4.300,153.209,0.000,0.250,0.000,0.750,General,0.000,112.875
 ElectricEquipment Internal Gains Nominal, BEDROOM1.6,EQUIPMENT-BEDROOM,BEDROOM1.6,26.25,0.7,112.875,4.300,153.209,0.000,0.250,0.000,0.750,General,0.000,112.875
 ElectricEquipment Internal Gains Nominal, BEDROOM1.7,EQUIPMENT-BEDROOM,BEDROOM1.7,26.25,0.7,112.875,4.300,153.209,0.000,0.250,0.000,0.750,General,0.000,112.875
 ElectricEquipment Internal Gains Nominal, BEDROOM1.8,EQUIPMENT-BEDROOM,BEDROOM1.8,26.25,0.7,112.875,4.300,153.209,0.000,0.250,0.000,0.750,General,0.000,112.875
 ElectricEquipment Internal Gains Nominal, BEDROOM1.9,EQUIPMENT-BEDROOM,BEDROOM1.9,18.00,0.5,77.400,4.300,153.209,0.000,0.250,0.000,0.750,General,0.000,77.400
 ElectricEquipment Internal Gains Nominal, BEDROOM1.10,EQUIPMENT-BEDROOM,BEDROOM1.10,15.00,0.4,64.500,4.300,153.209,0.000,0.250,0.000,0.750,General,0.000,64.500
 ElectricEquipment Internal Gains Nominal, BEDROOM1.11,EQUIPMENT-BEDROOM,BEDROOM1.11,15.00,0.4,64.500,4.300,153.209,0.000,0.250,0.000,0.750,General,0.000,64.500
 ElectricEquipment Internal Gains Nominal, BEDROOM1.12,EQUIPMENT-BEDROOM,BEDROOM1.12,18.00,0.5,77.400,4.300,153.209,0.000,0.250,0.000,0.750,General,0.000,77.400
 ElectricEquipment Internal Gains Nominal, KITCHEN2.1,EQUIPMENT CHUFANG,KITCHEN2.1,10.80,0.3,46.440,4.300,153.209,0.000,0.250,0.000,0.750,General,0.000,46.440
 ElectricEquipment Internal Gains Nominal, KITCHEN2.2,EQUIPMENT CHUFANG,KITCHEN2.2,10.80,0.3,46.440,4.300,153.209,0.000,0.250,0.000,0.750,General,0.000,46.440
 ElectricEquipment Internal Gains Nominal, KITCHEN2.3,EQUIPMENT CHUFANG,KITCHEN2.3,10.80,0.3,46.440,4.300,153.209,0.000,0.250,0.000,0.750,General,0.000,46.440
 ElectricEquipment Internal Gains Nominal, KITCHEN2.4,EQUIPMENT CHUFANG,KITCHEN2.4,10.80,0.3,46.440,4.300,153.209,0.000,0.250,0.000,0.750,General,0.000,46.440
 ElectricEquipment Internal Gains Nominal, LIVINGROOM2.1,EQUIPMENT-KETING,LIVINGROOM2.1,38.70,1.1,166.410,4.300,153.209,0.000,0.250,0.000,0.750,General,37.609,166.410
 ElectricEquipment Internal Gains Nominal, LIVINGROOM2.2,EQUIPMENT-KETING,LIVINGROOM2.2,38.70,1.1,166.410,4.300,153.209,0.000,0.250,0.000,0.750,General,37.609,166.410
 ElectricEquipment Internal Gains Nominal, LIVINGROOM2.3,EQUIPMENT-KETING,LIVINGROOM2.3,38.70,1.1,166.410,4.300,153.209,0.000,0.250,0.000,0.750,General,37.609,166.410
 ElectricEquipment Internal Gains Nominal, LIVINGROOM2.4,EQUIPMENT-KETING,LIVINGROOM2.4,38.70,1.1,166.410,4.300,153.209,0.000,0.250,0.000,0.750,General,37.609,166.410
 ElectricEquipment Internal Gains Nominal, BEDROOM2.1,EQUIPMENT-BEDROOM,BEDROOM2.1,18.00,0.5,77.400,4.300,153.209,0.000,0.250,0.000,0.750,General,0.000,77.400
 ElectricEquipment Internal Gains Nominal, BEDROOM2.2,EQUIPMENT-BEDROOM,BEDROOM2.2,15.00,0.4,64.500,4.300,153.209,0.000,0.250,0.000,0.750,General,0.000,64.500
 ElectricEquipment Internal Gains Nominal, BEDROOM2.3,EQUIPMENT-BEDROOM,BEDROOM2.3,15.00,0.4,64.500,4.300,153.209,0.000,0.250,0.000,0.750,General,0.000,64.500
 ElectricEquipment Internal Gains Nominal, BEDROOM2.4,EQUIPMENT-BEDROOM,BEDROOM2.4,18.00,0.5,77.400,4.300,153.209,0.000,0.250,0.000,0.750,General,0.000,77.400
 ElectricEquipment Internal Gains Nominal, BEDROOM2.5,EQUIPMENT-BEDROOM,BEDROOM2.5,26.25,0.7,112.875,4.300,153.209,0.000,0.250,0.000,0.750,General,0.000,112.875
 ElectricEquipment Internal Gains Nominal, BEDROOM2.6,EQUIPMENT-BEDROOM,BEDROOM2.6,26.25,0.7,112.875,4.300,153.209,0.000,0.250,0.000,0.750,General,0.000,112.875
 ElectricEquipment Internal Gains Nominal, BEDROOM2.7,EQUIPMENT-BEDROOM,BEDROOM2.7,26.25,0.7,112.875,4.300,153.209,0.000,0.250,0.000,0.750,General,0.000,112.875
 ElectricEquipment Internal Gains Nominal, BEDROOM2.8,EQUIPMENT-BEDROOM,BEDROOM2.8,26.25,0.7,112.875,4.300,153.209,0.000,0.250,0.000,0.750,General,0.000,112.875
 ElectricEquipment Internal Gains Nominal, BEDROOM2.9,EQUIPMENT-BEDROOM,BEDROOM2.9,18.00,0.5,77.400,4.300,153.209,0.000,0.250,0.000,0.750,General,0.000,77.400
 ElectricEquipment Internal Gains Nominal, BEDROOM2.10,EQUIPMENT-BEDROOM,BEDROOM2.10,15.00,0.4,64.500,4.300,153.209,0.000,0.250,0.000,0.750,General,0.000,64.500
 ElectricEquipment Internal Gains Nominal, BEDROOM2.11,EQUIPMENT-BEDROOM,BEDROOM2.11,15.00,0.4,64.500,4.300,153.209,0.000,0.250,0.000,0.750,General,0.000,64.500
 ElectricEquipment Internal Gains Nominal, BEDROOM2.12,EQUIPMENT-BEDROOM,BEDROOM2.12,18.00,0.5,77.400,4.300,153.209,0.000,0.250,0.000,0.750,General,0.000,77.400
 ElectricEquipment Internal Gains Nominal, KITCHEN3.1,EQUIPMENT CHUFANG,KITCHEN3.1,10.80,0.3,46.440,4.300,153.209,0.000,0.250,0.000,0.750,General,0.000,46.440
 ElectricEquipment Internal Gains Nominal, KITCHEN3.2,EQUIPMENT CHUFANG,KITCHEN3.2,10.80,0.3,46.440,4.300,153.209,0.000,0.250,0.000,0.750,General,0.000,46.440
 ElectricEquipment Internal Gains Nominal, KITCHEN3.3,EQUIPMENT CHUFANG,KITCHEN3.3,10.80,0.3,46.440,4.300,153.209,0.000,0.250,0.000,0.750,General,0.000,46.440
 ElectricEquipment Internal Gains Nominal, KITCHEN3.4,EQUIPMENT CHUFANG,KITCHEN3.4,10.80,0.3,46.440,4.300,153.209,0.000,0.250,0.000,0.750,General,0.000,46.440
 ElectricEquipment Internal Gains Nominal, LIVINGROOM3.1,EQUIPMENT-KETING,LIVINGROOM3.1,38.70,1.1,166.410,4.300,153.209,0.000,0.250,0.000,0.750,General,37.609,166.410
 ElectricEquipment Internal Gains Nominal, LIVINGROOM3.2,EQUIPMENT-KETING,LIVINGROOM3.2,38.70,1.1,166.410,4.300,153.209,0.000,0.250,0.000,0.750,General,37.609,166.410
 ElectricEquipment Internal Gains Nominal, LIVINGROOM3.3,EQUIPMENT-KETING,LIVINGROOM3.3,38.70,1.1,166.410,4.300,153.209,0.000,0.250,0.000,0.750,General,37.609,166.410
 ElectricEquipment Internal Gains Nominal, LIVINGROOM3.4,EQUIPMENT-KETING,LIVINGROOM3.4,38.70,1.1,166.410,4.300,153.209,0.000,0.250,0.000,0.750,General,37.609,166.410
 ElectricEquipment Internal Gains Nominal, BEDROOM3.1,EQUIPMENT-BEDROOM,BEDROOM3.1,18.00,0.5,77.400,4.300,153.209,0.000,0.250,0.000,0.750,General,0.000,77.400
 ElectricEquipment Internal Gains Nominal, BEDROOM3.2,EQUIPMENT-BEDROOM,BEDROOM3.2,15.00,0.4,64.500,4.300,153.209,0.000,0.250,0.000,0.750,General,0.000,64.500
 ElectricEquipment Internal Gains Nominal, BEDROOM3.3,EQUIPMENT-BEDROOM,BEDROOM3.3,15.00,0.4,64.500,4.300,153.209,0.000,0.250,0.000,0.750,General,0.000,64.500
 ElectricEquipment Internal Gains Nominal, BEDROOM3.4,EQUIPMENT-BEDROOM,BEDROOM3.4,18.00,0.5,77.400,4.300,153.209,0.000,0.250,0.000,0.750,General,0.000,77.400
 ElectricEquipment Internal Gains Nominal, BEDROOM3.5,EQUIPMENT-BEDROOM,BEDROOM3.5,26.25,0.7,112.875,4.300,153.209,0.000,0.250,0.000,0.750,General,0.000,112.875
 ElectricEquipment Internal Gains Nominal, BEDROOM3.6,EQUIPMENT-BEDROOM,BEDROOM3.6,26.25,0.7,112.875,4.300,153.209,0.000,0.250,0.000,0.750,General,0.000,112.875
 ElectricEquipment Internal Gains Nominal, BEDROOM3.7,EQUIPMENT-BEDROOM,BEDROOM3.7,26.25,0.7,112.875,4.300,153.209,0.000,0.250,0.000,0.750,General,0.000,112.875
 ElectricEquipment Internal Gains Nominal, BEDROOM3.8,EQUIPMENT-BEDROOM,BEDROOM3.8,26.25,0.7,112.875,4.300,153.209,0.000,0.250,0.000,0.750,General,0.000,112.875
 ElectricEquipment Internal Gains Nominal, BEDROOM3.9,EQUIPMENT-BEDROOM,BEDROOM3.9,18.00,0.5,77.400,4.300,153.209,0.000,0.250,0.000,0.750,General,0.000,77.400
 ElectricEquipment Internal Gains Nominal, BEDROOM3.10,EQUIPMENT-BEDROOM,BEDROOM3.10,15.00,0.4,64.500,4.300,153.209,0.000,0.250,0.000,0.750,General,0.000,64.500
 ElectricEquipment Internal Gains Nominal, BEDROOM3.11,EQUIPMENT-BEDROOM,BEDROOM3.11,15.00,0.4,64.500,4.300,153.209,0.000,0.250,0.000,0.750,General,0.000,64.500
 ElectricEquipment Internal Gains Nominal, BEDROOM3.12,EQUIPMENT-BEDROOM,BEDROOM3.12,18.00,0.5,77.400,4.300,153.209,0.000,0.250,0.000,0.750,General,0.000,77.400
! <Shadowing/Sun Position Calculations Annual Simulations>, Calculation Method, Value {days}, Allowable Number Figures in Shadow Overlap {}, Polygon Clipping Algorithm, Sky Diffuse Modeling Algorithm
Shadowing/Sun Position Calculations Annual Simulations,AverageOverDaysInFrequency,20,15000,SutherlandHodgman,SimpleSkyDiffuseModeling
! <ZoneInfiltration Airflow Stats Nominal>,Name,Schedule Name,Zone Name, Zone Floor Area {m2}, # Zone Occupants,Design Volume Flow Rate {m3/s},Volume Flow Rate/Floor Area {m3/s/m2},Volume Flow Rate/Exterior Surface Area {m3/s/m2},ACH - Air Changes per Hour,Equation A - Constant Term Coefficient {},Equation B - Temperature Term Coefficient {1/C},Equation C - Velocity Term Coefficient {s/m}, Equation D - Velocity Squared Term Coefficient {s2/m2}
 ZoneInfiltration Airflow Stats Nominal, KITCHEN1.1,ALWAYS ON,KITCHEN1.1,10.80,0.3,9.000E-003,8.333E-004,N/A,1.000,0.606,3.600E-002,0.118,0.000
 ZoneInfiltration Airflow Stats Nominal, KITCHEN1.2,ALWAYS ON,KITCHEN1.2,10.80,0.3,9.000E-003,8.333E-004,N/A,1.000,0.606,3.600E-002,0.118,0.000
 ZoneInfiltration Airflow Stats Nominal, KITCHEN1.3,ALWAYS ON,KITCHEN1.3,10.80,0.3,9.000E-003,8.333E-004,N/A,1.000,0.606,3.600E-002,0.118,0.000
 ZoneInfiltration Airflow Stats Nominal, KITCHEN1.4,ALWAYS ON,KITCHEN1.4,10.80,0.3,9.000E-003,8.333E-004,N/A,1.000,0.606,3.600E-002,0.118,0.000
 ZoneInfiltration Airflow Stats Nominal, LIVINGROOM1.1,ALWAYS ON,LIVINGROOM1.1,38.70,1.1,3.225E-002,8.333E-004,2.389E-003,1.000,0.606,3.600E-002,0.118,0.000
 ZoneInfiltration Airflow Stats Nominal, LIVINGROOM1.2,ALWAYS ON,LIVINGROOM1.2,38.70,1.1,3.225E-002,8.333E-004,2.389E-003,1.000,0.606,3.600E-002,0.118,0.000
 ZoneInfiltration Airflow Stats Nominal, LIVINGROOM1.3,ALWAYS ON,LIVINGROOM1.3,38.70,1.1,3.225E-002,8.333E-004,2.389E-003,1.000,0.606,3.600E-002,0.118,0.000
 ZoneInfiltration Airflow Stats Nominal, LIVINGROOM1.4,ALWAYS ON,LIVINGROOM1.4,38.70,1.1,3.225E-002,8.333E-004,2.389E-003,1.000,0.606,3.600E-002,0.118,0.000
 ZoneInfiltration Airflow Stats Nominal, BEDROOM1.1,ALWAYS ON,BEDROOM1.1,18.00,0.5,1.500E-002,8.333E-004,5.556E-004,1.000,0.606,3.600E-002,0.118,0.000
 ZoneInfiltration Airflow Stats Nominal, BEDROOM1.2,ALWAYS ON,BEDROOM1.2,15.00,0.4,1.250E-002,8.333E-004,8.333E-004,1.000,0.606,3.600E-002,0.118,0.000
 ZoneInfiltration Airflow Stats Nominal, BEDROOM1.3,ALWAYS ON,BEDROOM1.3,15.00,0.4,1.250E-002,8.333E-004,8.333E-004,1.000,0.606,3.600E-002,0.118,0.000
 ZoneInfiltration Airflow Stats Nominal, BEDROOM1.4,ALWAYS ON,BEDROOM1.4,18.00,0.5,1.500E-002,8.333E-004,5.556E-004,1.000,0.606,3.600E-002,0.118,0.000
 ZoneInfiltration Airflow Stats Nominal, BEDROOM1.5,ALWAYS ON,BEDROOM1.5,26.25,0.7,2.188E-002,8.333E-004,2.083E-003,1.000,0.606,3.600E-002,0.118,0.000
 ZoneInfiltration Airflow Stats Nominal, BEDROOM1.6,ALWAYS ON,BEDROOM1.6,26.25,0.7,2.188E-002,8.333E-004,2.083E-003,1.000,0.606,3.600E-002,0.118,0.000
 ZoneInfiltration Airflow Stats Nominal, BEDROOM1.7,ALWAYS ON,BEDROOM1.7,26.25,0.7,2.188E-002,8.333E-004,2.083E-003,1.000,0.606,3.600E-002,0.118,0.000
 ZoneInfiltration Airflow Stats Nominal, BEDROOM1.8,ALWAYS ON,BEDROOM1.8,26.25,0.7,2.188E-002,8.333E-004,2.083E-003,1.000,0.606,3.600E-002,0.118,0.000
 ZoneInfiltration Airflow Stats Nominal, BEDROOM1.9,ALWAYS ON,BEDROOM1.9,18.00,0.5,1.500E-002,8.333E-004,5.556E-004,1.000,0.606,3.600E-002,0.118,0.000
 ZoneInfiltration Airflow Stats Nominal, BEDROOM1.10,ALWAYS ON,BEDROOM1.10,15.00,0.4,1.250E-002,8.333E-004,8.333E-004,1.000,0.606,3.600E-002,0.118,0.000
 ZoneInfiltration Airflow Stats Nominal, BEDROOM1.11,ALWAYS ON,BEDROOM1.11,15.00,0.4,1.250E-002,8.333E-004,8.333E-004,1.000,0.606,3.600E-002,0.118,0.000
 ZoneInfiltration Airflow Stats Nominal, BEDROOM1.12,ALWAYS ON,BEDROOM1.12,18.00,0.5,1.500E-002,8.333E-004,5.556E-004,1.000,0.606,3.600E-002,0.118,0.000
 ZoneInfiltration Airflow Stats Nominal, KITCHEN2.1,ALWAYS ON,KITCHEN2.1,10.80,0.3,9.000E-003,8.333E-004,N/A,1.000,0.606,3.600E-002,0.118,0.000
 ZoneInfiltration Airflow Stats Nominal, KITCHEN2.2,ALWAYS ON,KITCHEN2.2,10.80,0.3,9.000E-003,8.333E-004,N/A,1.000,0.606,3.600E-002,0.118,0.000
 ZoneInfiltration Airflow Stats Nominal, KITCHEN2.3,ALWAYS ON,KITCHEN2.3,10.80,0.3,9.000E-003,8.333E-004,N/A,1.000,0.606,3.600E-002,0.118,0.000
 ZoneInfiltration Airflow Stats Nominal, KITCHEN2.4,ALWAYS ON,KITCHEN2.4,10.80,0.3,9.000E-003,8.333E-004,N/A,1.000,0.606,3.600E-002,0.118,0.000
 ZoneInfiltration Airflow Stats Nominal, LIVINGROOM2.1,ALWAYS ON,LIVINGROOM2.1,38.70,1.1,3.225E-002,8.333E-004,2.389E-003,1.000,0.606,3.600E-002,0.118,0.000
 ZoneInfiltration Airflow Stats Nominal, LIVINGROOM2.2,ALWAYS ON,LIVINGROOM2.2,38.70,1.1,3.225E-002,8.333E-004,2.389E-003,1.000,0.606,3.600E-002,0.118,0.000
 ZoneInfiltration Airflow Stats Nominal, LIVINGROOM2.3,ALWAYS ON,LIVINGROOM2.3,38.70,1.1,3.225E-002,8.333E-004,2.389E-003,1.000,0.606,3.600E-002,0.118,0.000
 ZoneInfiltration Airflow Stats Nominal, LIVINGROOM2.4,ALWAYS ON,LIVINGROOM2.4,38.70,1.1,3.225E-002,8.333E-004,2.389E-003,1.000,0.606,3.600E-002,0.118,0.000
 ZoneInfiltration Airflow Stats Nominal, BEDROOM2.1,ALWAYS ON,BEDROOM2.1,18.00,0.5,1.500E-002,8.333E-004,5.556E-004,1.000,0.606,3.600E-002,0.118,0.000
 ZoneInfiltration Airflow Stats Nominal, BEDROOM2.2,ALWAYS ON,BEDROOM2.2,15.00,0.4,1.250E-002,8.333E-004,8.333E-004,1.000,0.606,3.600E-002,0.118,0.000
 ZoneInfiltration Airflow Stats Nominal, BEDROOM2.3,ALWAYS ON,BEDROOM2.3,15.00,0.4,1.250E-002,8.333E-004,8.333E-004,1.000,0.606,3.600E-002,0.118,0.000
 ZoneInfiltration Airflow Stats Nominal, BEDROOM2.4,ALWAYS ON,BEDROOM2.4,18.00,0.5,1.500E-002,8.333E-004,5.556E-004,1.000,0.606,3.600E-002,0.118,0.000
 ZoneInfiltration Airflow Stats Nominal, BEDROOM2.5,ALWAYS ON,BEDROOM2.5,26.25,0.7,2.188E-002,8.333E-004,2.083E-003,1.000,0.606,3.600E-002,0.118,0.000
 ZoneInfiltration Airflow Stats Nominal, BEDROOM2.6,ALWAYS ON,BEDROOM2.6,26.25,0.7,2.188E-002,8.333E-004,2.083E-003,1.000,0.606,3.600E-002,0.118,0.000
 ZoneInfiltration Airflow Stats Nominal, BEDROOM2.7,ALWAYS ON,BEDROOM2.7,26.25,0.7,2.188E-002,8.333E-004,2.083E-003,1.000,0.606,3.600E-002,0.118,0.000
 ZoneInfiltration Airflow Stats Nominal, BEDROOM2.8,ALWAYS ON,BEDROOM2.8,26.25,0.7,2.188E-002,8.333E-004,2.083E-003,1.000,0.606,3.600E-002,0.118,0.000
 ZoneInfiltration Airflow Stats Nominal, BEDROOM2.9,ALWAYS ON,BEDROOM2.9,18.00,0.5,1.500E-002,8.333E-004,5.556E-004,1.000,0.606,3.600E-002,0.118,0.000
 ZoneInfiltration Airflow Stats Nominal, BEDROOM2.10,ALWAYS ON,BEDROOM2.10,15.00,0.4,1.250E-002,8.333E-004,8.333E-004,1.000,0.606,3.600E-002,0.118,0.000
 ZoneInfiltration Airflow Stats Nominal, BEDROOM2.11,ALWAYS ON,BEDROOM2.11,15.00,0.4,1.250E-002,8.333E-004,8.333E-004,1.000,0.606,3.600E-002,0.118,0.000
 ZoneInfiltration Airflow Stats Nominal, BEDROOM2.12,ALWAYS ON,BEDROOM2.12,18.00,0.5,1.500E-002,8.333E-004,5.556E-004,1.000,0.606,3.600E-002,0.118,0.000
 ZoneInfiltration Airflow Stats Nominal, KITCHEN3.1,ALWAYS ON,KITCHEN3.1,10.80,0.3,9.000E-003,8.333E-004,8.333E-004,1.000,0.606,3.600E-002,0.118,0.000
 ZoneInfiltration Airflow Stats Nominal, KITCHEN3.2,ALWAYS ON,KITCHEN3.2,10.80,0.3,9.000E-003,8.333E-004,8.333E-004,1.000,0.606,3.600E-002,0.118,0.000
 ZoneInfiltration Airflow Stats Nominal, KITCHEN3.3,ALWAYS ON,KITCHEN3.3,10.80,0.3,9.000E-003,8.333E-004,8.333E-004,1.000,0.606,3.600E-002,0.118,0.000
 ZoneInfiltration Airflow Stats Nominal, KITCHEN3.4,ALWAYS ON,KITCHEN3.4,10.80,0.3,9.000E-003,8.333E-004,8.333E-004,1.000,0.606,3.600E-002,0.118,0.000
 ZoneInfiltration Airflow Stats Nominal, LIVINGROOM3.1,ALWAYS ON,LIVINGROOM3.1,38.70,1.1,3.225E-002,8.333E-004,6.178E-004,1.000,0.606,3.600E-002,0.118,0.000
 ZoneInfiltration Airflow Stats Nominal, LIVINGROOM3.2,ALWAYS ON,LIVINGROOM3.2,38.70,1.1,3.225E-002,8.333E-004,6.178E-004,1.000,0.606,3.600E-002,0.118,0.000
 ZoneInfiltration Airflow Stats Nominal, LIVINGROOM3.3,ALWAYS ON,LIVINGROOM3.3,38.70,1.1,3.225E-002,8.333E-004,6.178E-004,1.000,0.606,3.600E-002,0.118,0.000
 ZoneInfiltration Airflow Stats Nominal, LIVINGROOM3.4,ALWAYS ON,LIVINGROOM3.4,38.70,1.1,3.225E-002,8.333E-004,6.178E-004,1.000,0.606,3.600E-002,0.118,0.000
 ZoneInfiltration Airflow Stats Nominal, BEDROOM3.1,ALWAYS ON,BEDROOM3.1,18.00,0.5,1.500E-002,8.333E-004,3.333E-004,1.000,0.606,3.600E-002,0.118,0.000
 ZoneInfiltration Airflow Stats Nominal, BEDROOM3.2,ALWAYS ON,BEDROOM3.2,15.00,0.4,1.250E-002,8.333E-004,4.167E-004,1.000,0.606,3.600E-002,0.118,0.000
 ZoneInfiltration Airflow Stats Nominal, BEDROOM3.3,ALWAYS ON,BEDROOM3.3,15.00,0.4,1.250E-002,8.333E-004,4.167E-004,1.000,0.606,3.600E-002,0.118,0.000
 ZoneInfiltration Airflow Stats Nominal, BEDROOM3.4,ALWAYS ON,BEDROOM3.4,18.00,0.5,1.500E-002,8.333E-004,3.333E-004,1.000,0.606,3.600E-002,0.118,0.000
 ZoneInfiltration Airflow Stats Nominal, BEDROOM3.5,ALWAYS ON,BEDROOM3.5,26.25,0.7,2.188E-002,8.333E-004,5.952E-004,1.000,0.606,3.600E-002,0.118,0.000
 ZoneInfiltration Airflow Stats Nominal, BEDROOM3.6,ALWAYS ON,BEDROOM3.6,26.25,0.7,2.188E-002,8.333E-004,5.952E-004,1.000,0.606,3.600E-002,0.118,0.000
 ZoneInfiltration Airflow Stats Nominal, BEDROOM3.7,ALWAYS ON,BEDROOM3.7,26.25,0.7,2.187E-002,8.333E-004,5.952E-004,1.000,0.606,3.600E-002,0.118,0.000
 ZoneInfiltration Airflow Stats Nominal, BEDROOM3.8,ALWAYS ON,BEDROOM3.8,26.25,0.7,2.188E-002,8.333E-004,5.952E-004,1.000,0.606,3.600E-002,0.118,0.000
 ZoneInfiltration Airflow Stats Nominal, BEDROOM3.9,ALWAYS ON,BEDROOM3.9,18.00,0.5,1.500E-002,8.333E-004,3.333E-004,1.000,0.606,3.600E-002,0.118,0.000
 ZoneInfiltration Airflow Stats Nominal, BEDROOM3.10,ALWAYS ON,BEDROOM3.10,15.00,0.4,1.250E-002,8.333E-004,4.167E-004,1.000,0.606,3.600E-002,0.118,0.000
 ZoneInfiltration Airflow Stats Nominal, BEDROOM3.11,ALWAYS ON,BEDROOM3.11,15.00,0.4,1.250E-002,8.333E-004,4.167E-004,1.000,0.606,3.600E-002,0.118,0.000
 ZoneInfiltration Airflow Stats Nominal, BEDROOM3.12,ALWAYS ON,BEDROOM3.12,18.00,0.5,1.500E-002,8.333E-004,3.333E-004,1.000,0.606,3.600E-002,0.118,0.000
! <ZoneVentilation Airflow Stats Nominal>,Name,Schedule Name,Zone Name, Zone Floor Area {m2}, # Zone Occupants,Design Volume Flow Rate {m3/s},Volume Flow Rate/Floor Area {m3/s/m2},Volume Flow Rate/person Area {m3/s/person},ACH - Air Changes per Hour,Fan Type {Exhaust;Intake;Natural},Fan Pressure Rise {Pa},Fan Efficiency {},Equation A - Constant Term Coefficient {},Equation B - Temperature Term Coefficient {1/C},Equation C - Velocity Term Coefficient {s/m}, Equation D - Velocity Squared Term Coefficient {s2/m2},Minimum Indoor Temperature{C}/Schedule,Maximum Indoor Temperature{C}/Schedule,Delta Temperature{C}/Schedule,Minimum Outdoor Temperature{C}/Schedule,Maximum Outdoor Temperature{C}/Schedule,Maximum WindSpeed{m/s}
 ZoneVentilation Airflow Stats Nominal, JICHUKITCHEN1.1,JICHUTONGFENGQITA,KITCHEN1.1,10.80,0.3,3.600E-002,3.333E-003,0.119,4.000,Natural,0.000,1.0,0.606,3.600E-002,0.118,0.000,-100.00,100.00,-100.00,-100.00,100.00,40.00
 ZoneVentilation Airflow Stats Nominal, JICHUKITCHEN1.2,JICHUTONGFENGQITA,KITCHEN1.2,10.80,0.3,3.600E-002,3.333E-003,0.119,4.000,Natural,0.000,1.0,0.606,3.600E-002,0.118,0.000,-100.00,100.00,-100.00,-100.00,100.00,40.00
 ZoneVentilation Airflow Stats Nominal, JICHUKITCHEN1.3,JICHUTONGFENGQITA,KITCHEN1.3,10.80,0.3,3.600E-002,3.333E-003,0.119,4.000,Natural,0.000,1.0,0.606,3.600E-002,0.118,0.000,-100.00,100.00,-100.00,-100.00,100.00,40.00
 ZoneVentilation Airflow Stats Nominal, JICHUKITCHEN1.4,JICHUTONGFENGQITA,KITCHEN1.4,10.80,0.3,3.600E-002,3.333E-003,0.119,4.000,Natural,0.000,1.0,0.606,3.600E-002,0.118,0.000,-100.00,100.00,-100.00,-100.00,100.00,40.00
 ZoneVentilation Airflow Stats Nominal, JICHULIVINGROOM1.1,JICHUTONGFENGKETING,LIVINGROOM1.1,38.70,1.1,0.129,3.333E-003,0.119,4.000,Natural,0.000,1.0,0.606,3.600E-002,0.118,0.000,-100.00,100.00,-100.00,-100.00,100.00,40.00
 ZoneVentilation Airflow Stats Nominal, JICHULIVINGROOM1.2,JICHUTONGFENGKETING,LIVINGROOM1.2,38.70,1.1,0.129,3.333E-003,0.119,4.000,Natural,0.000,1.0,0.606,3.600E-002,0.118,0.000,-100.00,100.00,-100.00,-100.00,100.00,40.00
 ZoneVentilation Airflow Stats Nominal, JICHULIVINGROOM1.3,JICHUTONGFENGKETING,LIVINGROOM1.3,38.70,1.1,0.129,3.333E-003,0.119,4.000,Natural,0.000,1.0,0.606,3.600E-002,0.118,0.000,-100.00,100.00,-100.00,-100.00,100.00,40.00
 ZoneVentilation Airflow Stats Nominal, JICHULIVINGROOM1.4,JICHUTONGFENGKETING,LIVINGROOM1.4,38.70,1.1,0.129,3.333E-003,0.119,4.000,Natural,0.000,1.0,0.606,3.600E-002,0.118,0.000,-100.00,100.00,-100.00,-100.00,100.00,40.00
 ZoneVentilation Airflow Stats Nominal, JICHUBEDROOM1.1,JICHUTONGFENGBEDROOM,BEDROOM1.1,18.00,0.5,6.000E-002,3.333E-003,0.119,4.000,Natural,0.000,1.0,0.606,3.600E-002,0.118,0.000,-100.00,100.00,-100.00,-100.00,100.00,40.00
 ZoneVentilation Airflow Stats Nominal, JICHUBEDROOM1.2,JICHUTONGFENGBEDROOM,BEDROOM1.2,15.00,0.4,5.000E-002,3.333E-003,0.119,4.000,Natural,0.000,1.0,0.606,3.600E-002,0.118,0.000,-100.00,100.00,-100.00,-100.00,100.00,40.00
 ZoneVentilation Airflow Stats Nominal, JICHUBEDROOM1.3,JICHUTONGFENGBEDROOM,BEDROOM1.3,15.00,0.4,5.000E-002,3.333E-003,0.119,4.000,Natural,0.000,1.0,0.606,3.600E-002,0.118,0.000,-100.00,100.00,-100.00,-100.00,100.00,40.00
 ZoneVentilation Airflow Stats Nominal, JICHUBEDROOM1.4,JICHUTONGFENGBEDROOM,BEDROOM1.4,18.00,0.5,6.000E-002,3.333E-003,0.119,4.000,Natural,0.000,1.0,0.606,3.600E-002,0.118,0.000,-100.00,100.00,-100.00,-100.00,100.00,40.00
 ZoneVentilation Airflow Stats Nominal, JICHUBEDROOM1.5,JICHUTONGFENGBEDROOM,BEDROOM1.5,26.25,0.7,8.750E-002,3.333E-003,0.119,4.000,Natural,0.000,1.0,0.606,3.600E-002,0.118,0.000,-100.00,100.00,-100.00,-100.00,100.00,40.00
 ZoneVentilation Airflow Stats Nominal, JICHUBEDROOM1.6,JICHUTONGFENGBEDROOM,BEDROOM1.6,26.25,0.7,8.750E-002,3.333E-003,0.119,4.000,Natural,0.000,1.0,0.606,3.600E-002,0.118,0.000,-100.00,100.00,-100.00,-100.00,100.00,40.00
 ZoneVentilation Airflow Stats Nominal, JICHUBEDROOM1.7,JICHUTONGFENGBEDROOM,BEDROOM1.7,26.25,0.7,8.750E-002,3.333E-003,0.119,4.000,Natural,0.000,1.0,0.606,3.600E-002,0.118,0.000,-100.00,100.00,-100.00,-100.00,100.00,40.00
 ZoneVentilation Airflow Stats Nominal, JICHUBEDROOM1.8,JICHUTONGFENGBEDROOM,BEDROOM1.8,26.25,0.7,8.750E-002,3.333E-003,0.119,4.000,Natural,0.000,1.0,0.606,3.600E-002,0.118,0.000,-100.00,100.00,-100.00,-100.00,100.00,40.00
 ZoneVentilation Airflow Stats Nominal, JICHUBEDROOM1.9,JICHUTONGFENGBEDROOM,BEDROOM1.9,18.00,0.5,6.000E-002,3.333E-003,0.119,4.000,Natural,0.000,1.0,0.606,3.600E-002,0.118,0.000,-100.00,100.00,-100.00,-100.00,100.00,40.00
 ZoneVentilation Airflow Stats Nominal, JICHUBEDROOM1.10,JICHUTONGFENGBEDROOM,BEDROOM1.10,15.00,0.4,5.000E-002,3.333E-003,0.119,4.000,Natural,0.000,1.0,0.606,3.600E-002,0.118,0.000,-100.00,100.00,-100.00,-100.00,100.00,40.00
 ZoneVentilation Airflow Stats Nominal, JICHUBEDROOM1.11,JICHUTONGFENGBEDROOM,BEDROOM1.11,15.00,0.4,5.000E-002,3.333E-003,0.119,4.000,Natural,0.000,1.0,0.606,3.600E-002,0.118,0.000,-100.00,100.00,-100.00,-100.00,100.00,40.00
 ZoneVentilation Airflow Stats Nominal, JICHUBEDROOM1.12,JICHUTONGFENGBEDROOM,BEDROOM1.12,18.00,0.5,6.000E-002,3.333E-003,0.119,4.000,Natural,0.000,1.0,0.606,3.600E-002,0.118,0.000,-100.00,100.00,-100.00,-100.00,100.00,40.00
 ZoneVentilation Airflow Stats Nominal, JICHUKITCHEN2.1,JICHUTONGFENGQITA,KITCHEN2.1,10.80,0.3,3.600E-002,3.333E-003,0.119,4.000,Natural,0.000,1.0,0.606,3.600E-002,0.118,0.000,-100.00,100.00,-100.00,-100.00,100.00,40.00
 ZoneVentilation Airflow Stats Nominal, JICHUKITCHEN2.2,JICHUTONGFENGQITA,KITCHEN2.2,10.80,0.3,3.600E-002,3.333E-003,0.119,4.000,Natural,0.000,1.0,0.606,3.600E-002,0.118,0.000,-100.00,100.00,-100.00,-100.00,100.00,40.00
 ZoneVentilation Airflow Stats Nominal, JICHUKITCHEN2.3,JICHUTONGFENGQITA,KITCHEN2.3,10.80,0.3,3.600E-002,3.333E-003,0.119,4.000,Natural,0.000,1.0,0.606,3.600E-002,0.118,0.000,-100.00,100.00,-100.00,-100.00,100.00,40.00
 ZoneVentilation Airflow Stats Nominal, JICHUKITCHEN2.4,JICHUTONGFENGQITA,KITCHEN2.4,10.80,0.3,3.600E-002,3.333E-003,0.119,4.000,Natural,0.000,1.0,0.606,3.600E-002,0.118,0.000,-100.00,100.00,-100.00,-100.00,100.00,40.00
 ZoneVentilation Airflow Stats Nominal, JICHULIVINGROOM2.1,JICHUTONGFENGKETING,LIVINGROOM2.1,38.70,1.1,0.129,3.333E-003,0.119,4.000,Natural,0.000,1.0,0.606,3.600E-002,0.118,0.000,-100.00,100.00,-100.00,-100.00,100.00,40.00
 ZoneVentilation Airflow Stats Nominal, JICHULIVINGROOM2.2,JICHUTONGFENGKETING,LIVINGROOM2.2,38.70,1.1,0.129,3.333E-003,0.119,4.000,Natural,0.000,1.0,0.606,3.600E-002,0.118,0.000,-100.00,100.00,-100.00,-100.00,100.00,40.00
 ZoneVentilation Airflow Stats Nominal, JICHULIVINGROOM2.3,JICHUTONGFENGKETING,LIVINGROOM2.3,38.70,1.1,0.129,3.333E-003,0.119,4.000,Natural,0.000,1.0,0.606,3.600E-002,0.118,0.000,-100.00,100.00,-100.00,-100.00,100.00,40.00
 ZoneVentilation Airflow Stats Nominal, JICHULIVINGROOM2.4,JICHUTONGFENGKETING,LIVINGROOM2.4,38.70,1.1,0.129,3.333E-003,0.119,4.000,Natural,0.000,1.0,0.606,3.600E-002,0.118,0.000,-100.00,100.00,-100.00,-100.00,100.00,40.00
 ZoneVentilation Airflow Stats Nominal, JICHUBEDROOM2.1,JICHUTONGFENGBEDROOM,BEDROOM2.1,18.00,0.5,6.000E-002,3.333E-003,0.119,4.000,Natural,0.000,1.0,0.606,3.600E-002,0.118,0.000,-100.00,100.00,-100.00,-100.00,100.00,40.00
 ZoneVentilation Airflow Stats Nominal, JICHUBEDROOM2.2,JICHUTONGFENGBEDROOM,BEDROOM2.2,15.00,0.4,5.000E-002,3.333E-003,0.119,4.000,Natural,0.000,1.0,0.606,3.600E-002,0.118,0.000,-100.00,100.00,-100.00,-100.00,100.00,40.00
 ZoneVentilation Airflow Stats Nominal, JICHUBEDROOM2.3,JICHUTONGFENGBEDROOM,BEDROOM2.3,15.00,0.4,5.000E-002,3.333E-003,0.119,4.000,Natural,0.000,1.0,0.606,3.600E-002,0.118,0.000,-100.00,100.00,-100.00,-100.00,100.00,40.00
 ZoneVentilation Airflow Stats Nominal, JICHUBEDROOM2.4,JICHUTONGFENGBEDROOM,BEDROOM2.4,18.00,0.5,6.000E-002,3.333E-003,0.119,4.000,Natural,0.000,1.0,0.606,3.600E-002,0.118,0.000,-100.00,100.00,-100.00,-100.00,100.00,40.00
 ZoneVentilation Airflow Stats Nominal, JICHUBEDROOM2.5,JICHUTONGFENGBEDROOM,BEDROOM2.5,26.25,0.7,8.750E-002,3.333E-003,0.119,4.000,Natural,0.000,1.0,0.606,3.600E-002,0.118,0.000,-100.00,100.00,-100.00,-100.00,100.00,40.00
 ZoneVentilation Airflow Stats Nominal, JICHUBEDROOM2.6,JICHUTONGFENGBEDROOM,BEDROOM2.6,26.25,0.7,8.750E-002,3.333E-003,0.119,4.000,Natural,0.000,1.0,0.606,3.600E-002,0.118,0.000,-100.00,100.00,-100.00,-100.00,100.00,40.00
 ZoneVentilation Airflow Stats Nominal, JICHUBEDROOM2.7,JICHUTONGFENGBEDROOM,BEDROOM2.7,26.25,0.7,8.750E-002,3.333E-003,0.119,4.000,Natural,0.000,1.0,0.606,3.600E-002,0.118,0.000,-100.00,100.00,-100.00,-100.00,100.00,40.00
 ZoneVentilation Airflow Stats Nominal, JICHUBEDROOM2.8,JICHUTONGFENGBEDROOM,BEDROOM2.8,26.25,0.7,8.750E-002,3.333E-003,0.119,4.000,Natural,0.000,1.0,0.606,3.600E-002,0.118,0.000,-100.00,100.00,-100.00,-100.00,100.00,40.00
 ZoneVentilation Airflow Stats Nominal, JICHUBEDROOM2.9,JICHUTONGFENGBEDROOM,BEDROOM2.9,18.00,0.5,6.000E-002,3.333E-003,0.119,4.000,Natural,0.000,1.0,0.606,3.600E-002,0.118,0.000,-100.00,100.00,-100.00,-100.00,100.00,40.00
 ZoneVentilation Airflow Stats Nominal, JICHUBEDROOM2.10,JICHUTONGFENGBEDROOM,BEDROOM2.10,15.00,0.4,5.000E-002,3.333E-003,0.119,4.000,Natural,0.000,1.0,0.606,3.600E-002,0.118,0.000,-100.00,100.00,-100.00,-100.00,100.00,40.00
 ZoneVentilation Airflow Stats Nominal, JICHUBEDROOM2.11,JICHUTONGFENGBEDROOM,BEDROOM2.11,15.00,0.4,5.000E-002,3.333E-003,0.119,4.000,Natural,0.000,1.0,0.606,3.600E-002,0.118,0.000,-100.00,100.00,-100.00,-100.00,100.00,40.00
 ZoneVentilation Airflow Stats Nominal, JICHUBEDROOM2.12,JICHUTONGFENGBEDROOM,BEDROOM2.12,18.00,0.5,6.000E-002,3.333E-003,0.119,4.000,Natural,0.000,1.0,0.606,3.600E-002,0.118,0.000,-100.00,100.00,-100.00,-100.00,100.00,40.00
 ZoneVentilation Airflow Stats Nominal, JICHUKITCHEN3.1,JICHUTONGFENGQITA,KITCHEN3.1,10.80,0.3,3.600E-002,3.333E-003,0.119,4.000,Natural,0.000,1.0,0.606,3.600E-002,0.118,0.000,-100.00,100.00,-100.00,-100.00,100.00,40.00
 ZoneVentilation Airflow Stats Nominal, JICHUKITCHEN3.2,JICHUTONGFENGQITA,KITCHEN3.2,10.80,0.3,3.600E-002,3.333E-003,0.119,4.000,Natural,0.000,1.0,0.606,3.600E-002,0.118,0.000,-100.00,100.00,-100.00,-100.00,100.00,40.00
 ZoneVentilation Airflow Stats Nominal, JICHUKITCHEN3.3,JICHUTONGFENGQITA,KITCHEN3.3,10.80,0.3,3.600E-002,3.333E-003,0.119,4.000,Natural,0.000,1.0,0.606,3.600E-002,0.118,0.000,-100.00,100.00,-100.00,-100.00,100.00,40.00
 ZoneVentilation Airflow Stats Nominal, JICHUKITCHEN3.4,JICHUTONGFENGQITA,KITCHEN3.4,10.80,0.3,3.600E-002,3.333E-003,0.119,4.000,Natural,0.000,1.0,0.606,3.600E-002,0.118,0.000,-100.00,100.00,-100.00,-100.00,100.00,40.00
 ZoneVentilation Airflow Stats Nominal, JICHULIVINGROOM3.1,JICHUTONGFENGKETING,LIVINGROOM3.1,38.70,1.1,0.129,3.333E-003,0.119,4.000,Natural,0.000,1.0,0.606,3.600E-002,0.118,0.000,-100.00,100.00,-100.00,-100.00,100.00,40.00
 ZoneVentilation Airflow Stats Nominal, JICHULIVINGROOM3.2,JICHUTONGFENGKETING,LIVINGROOM3.2,38.70,1.1,0.129,3.333E-003,0.119,4.000,Natural,0.000,1.0,0.606,3.600E-002,0.118,0.000,-100.00,100.00,-100.00,-100.00,100.00,40.00
 ZoneVentilation Airflow Stats Nominal, JICHULIVINGROOM3.3,JICHUTONGFENGKETING,LIVINGROOM3.3,38.70,1.1,0.129,3.333E-003,0.119,4.000,Natural,0.000,1.0,0.606,3.600E-002,0.118,0.000,-100.00,100.00,-100.00,-100.00,100.00,40.00
 ZoneVentilation Airflow Stats Nominal, JICHULIVINGROOM3.4,JICHUTONGFENGKETING,LIVINGROOM3.4,38.70,1.1,0.129,3.333E-003,0.119,4.000,Natural,0.000,1.0,0.606,3.600E-002,0.118,0.000,-100.00,100.00,-100.00,-100.00,100.00,40.00
 ZoneVentilation Airflow Stats Nominal, JICHUBEDROOM3.1,JICHUTONGFENGBEDROOM,BEDROOM3.1,18.00,0.5,6.000E-002,3.333E-003,0.119,4.000,Natural,0.000,1.0,0.606,3.600E-002,0.118,0.000,-100.00,100.00,-100.00,-100.00,100.00,40.00
 ZoneVentilation Airflow Stats Nominal, JICHUBEDROOM3.2,JICHUTONGFENGBEDROOM,BEDROOM3.2,15.00,0.4,5.000E-002,3.333E-003,0.119,4.000,Natural,0.000,1.0,0.606,3.600E-002,0.118,0.000,-100.00,100.00,-100.00,-100.00,100.00,40.00
[...]
 ZoneVentilation Airflow Stats Nominal, LIVINGROOM2.1,TONGFENGCISHUBIANLIANG,LIVINGROOM2.1,38.70,1.1,1.015,2.622E-002,0.934,31.460,Natural,0.000,1.0,0.606,3.600E-002,0.118,0.000,-100.00,100.00,-100.00,15.37,28.78,40.00
 ZoneVentilation Airflow Stats Nominal, LIVINGROOM2.2,TONGFENGCISHUBIANLIANG,LIVINGROOM2.2,38.70,1.1,1.015,2.622E-002,0.934,31.460,Natural,0.000,1.0,0.606,3.600E-002,0.118,0.000,-100.00,100.00,-100.00,15.37,28.78,40.00
 ZoneVentilation Airflow Stats Nominal, LIVINGROOM2.3,TONGFENGCISHUBIANLIANG,LIVINGROOM2.3,38.70,1.1,1.015,2.622E-002,0.934,31.460,Natural,0.000,1.0,0.606,3.600E-002,0.118,0.000,-100.00,100.00,-100.00,15.37,28.78,40.00
 ZoneVentilation Airflow Stats Nominal, LIVINGROOM2.4,TONGFENGCISHUBIANLIANG,LIVINGROOM2.4,38.70,1.1,1.015,2.622E-002,0.934,31.460,Natural,0.000,1.0,0.606,3.600E-002,0.118,0.000,-100.00,100.00,-100.00,15.37,28.78,40.00
 ZoneVentilation Airflow Stats Nominal, BEDROOM2.1,TONGFENGCISHUBIANLIANG,BEDROOM2.1,18.00,0.5,0.472,2.622E-002,0.934,31.460,Natural,0.000,1.0,0.606,3.600E-002,0.118,0.000,-100.00,100.00,-100.00,15.37,28.78,40.00
 ZoneVentilation Airflow Stats Nominal, BEDROOM2.2,TONGFENGCISHUBIANLIANG,BEDROOM2.2,15.00,0.4,0.393,2.622E-002,0.934,31.460,Natural,0.000,1.0,0.606,3.600E-002,0.118,0.000,-100.00,100.00,-100.00,15.37,28.78,40.00
 ZoneVentilation Airflow Stats Nominal, BEDROOM2.3,TONGFENGCISHUBIANLIANG,BEDROOM2.3,15.00,0.4,0.393,2.622E-002,0.934,31.460,Natural,0.000,1.0,0.606,3.600E-002,0.118,0.000,-100.00,100.00,-100.00,15.37,28.78,40.00
 ZoneVentilation Airflow Stats Nominal, BEDROOM2.4,TONGFENGCISHUBIANLIANG,BEDROOM2.4,18.00,0.5,0.472,2.622E-002,0.934,31.460,Natural,0.000,1.0,0.606,3.600E-002,0.118,0.000,-100.00,100.00,-100.00,15.37,28.78,40.00
 ZoneVentilation Airflow Stats Nominal, BEDROOM2.5,TONGFENGCISHUBIANLIANG,BEDROOM2.5,26.25,0.7,0.688,2.622E-002,0.934,31.460,Natural,0.000,1.0,0.606,3.600E-002,0.118,0.000,-100.00,100.00,-100.00,15.37,28.78,40.00
 ZoneVentilation Airflow Stats Nominal, BEDROOM2.6,TONGFENGCISHUBIANLIANG,BEDROOM2.6,26.25,0.7,0.688,2.622E-002,0.934,31.460,Natural,0.000,1.0,0.606,3.600E-002,0.118,0.000,-100.00,100.00,-100.00,15.37,28.78,40.00
 ZoneVentilation Airflow Stats Nominal, BEDROOM2.7,TONGFENGCISHUBIANLIANG,BEDROOM2.7,26.25,0.7,0.688,2.622E-002,0.934,31.460,Natural,0.000,1.0,0.606,3.600E-002,0.118,0.000,-100.00,100.00,-100.00,15.37,28.78,40.00
 ZoneVentilation Airflow Stats Nominal, BEDROOM2.8,TONGFENGCISHUBIANLIANG,BEDROOM2.8,26.25,0.7,0.688,2.622E-002,0.934,31.460,Natural,0.000,1.0,0.606,3.600E-002,0.118,0.000,-100.00,100.00,-100.00,15.37,28.78,40.00
 ZoneVentilation Airflow Stats Nominal, BEDROOM2.9,TONGFENGCISHUBIANLIANG,BEDROOM2.9,18.00,0.5,0.472,2.622E-002,0.934,31.460,Natural,0.000,1.0,0.606,3.600E-002,0.118,0.000,-100.00,100.00,-100.00,15.37,28.78,40.00
 ZoneVentilation Airflow Stats Nominal, BEDROOM2.10,TONGFENGCISHUBIANLIANG,BEDROOM2.10,15.00,0.4,0.393,2.622E-002,0.934,31.460,Natural,0.000,1.0,0.606,3.600E-002,0.118,0.000,-100.00,100.00,-100.00,15.37,28.78,40.00
 ZoneVentilation Airflow Stats Nominal, BEDROOM2.11,TONGFENGCISHUBIANLIANG,BEDROOM2.11,15.00,0.4,0.393,2.622E-002,0.934,31.460,Natural,0.000,1.0,0.606,3.600E-002,0.118,0.000,-100.00,100.00,-100.00,15.37,28.78,40.00
 ZoneVentilation Airflow Stats Nominal, BEDROOM2.12,TONGFENGCISHUBIANLIANG,BEDROOM2.12,18.00,0.5,0.472,2.622E-002,0.934,31.460,Natural,0.000,1.0,0.606,3.600E-002,0.118,0.000,-100.00,100.00,-100.00,15.37,28.78,40.00
 ZoneVentilation Airflow Stats Nominal, KITCHEN3.1,TONGFENGCISHUBIANLIANG,KITCHEN3.1,10.80,0.3,0.283,2.622E-002,0.934,31.460,Natural,0.000,1.0,0.606,3.600E-002,0.118,0.000,-100.00,100.00,-100.00,15.37,28.78,40.00
 ZoneVentilation Airflow Stats Nominal, KITCHEN3.2,TONGFENGCISHUBIANLIANG,KITCHEN3.2,10.80,0.3,0.283,2.622E-002,0.934,31.460,Natural,0.000,1.0,0.606,3.600E-002,0.118,0.000,-100.00,100.00,-100.00,15.37,28.78,40.00
 ZoneVentilation Airflow Stats Nominal, KITCHEN3.3,TONGFENGCISHUBIANLIANG,KITCHEN3.3,10.80,0.3,0.283,2.622E-002,0.934,31.460,Natural,0.000,1.0,0.606,3.600E-002,0.118,0.000,-100.00,100.00,-100.00,15.37,28.78,40.00
 ZoneVentilation Airflow Stats Nominal, KITCHEN3.4,TONGFENGCISHUBIANLIANG,KITCHEN3.4,10.80,0.3,0.283,2.622E-002,0.934,31.460,Natural,0.000,1.0,0.606,3.600E-002,0.118,0.000,-100.00,100.00,-100.00,15.37,28.78,40.00
 ZoneVentilation Airflow Stats Nominal, LIVINGROOM3.1,TONGFENGCISHUBIANLIANG,LIVINGROOM3.1,38.70,1.1,1.015,2.622E-002,0.934,31.460,Natural,0.000,1.0,0.606,3.600E-002,0.118,0.000,-100.00,100.00,-100.00,15.37,28.78,40.00
 ZoneVentilation Airflow Stats Nominal, LIVINGROOM3.2,TONGFENGCISHUBIANLIANG,LIVINGROOM3.2,38.70,1.1,1.015,2.622E-002,0.934,31.460,Natural,0.000,1.0,0.606,3.600E-002,0.118,0.000,-100.00,100.00,-100.00,15.37,28.78,40.00
 ZoneVentilation Airflow Stats Nominal, LIVINGROOM3.3,TONGFENGCISHUBIANLIANG,LIVINGROOM3.3,38.70,1.1,1.015,2.622E-002,0.934,31.460,Natural,0.000,1.0,0.606,3.600E-002,0.118,0.000,-100.00,100.00,-100.00,15.37,28.78,40.00
 ZoneVentilation Airflow Stats Nominal, LIVINGROOM3.4,TONGFENGCISHUBIANLIANG,LIVINGROOM3.4,38.70,1.1,1.015,2.622E-002,0.934,31.460,Natural,0.000,1.0,0.606,3.600E-002,0.118,0.000,-100.00,100.00,-100.00,15.37,28.78,40.00
 ZoneVentilation Airflow Stats Nominal, BEDROOM3.1,TONGFENGCISHUBIANLIANG,BEDROOM3.1,18.00,0.5,0.472,2.622E-002,0.934,31.460,Natural,0.000,1.0,0.606,3.600E-002,0.118,0.000,-100.00,100.00,-100.00,15.37,28.78,40.00
 ZoneVentilation Airflow Stats Nominal, BEDROOM3.2,TONGFENGCISHUBIANLIANG,BEDROOM3.2,15.00,0.4,0.393,2.622E-002,0.934,31.460,Natural,0.000,1.0,0.606,3.600E-002,0.118,0.000,-100.00,100.00,-100.00,15.37,28.78,40.00
 ZoneVentilation Airflow Stats Nominal, BEDROOM3.3,TONGFENGCISHUBIANLIANG,BEDROOM3.3,15.00,0.4,0.393,2.622E-002,0.934,31.460,Natural,0.000,1.0,0.606,3.600E-002,0.118,0.000,-100.00,100.00,-100.00,15.37,28.78,40.00
 ZoneVentilation Airflow Stats Nominal, BEDROOM3.4,TONGFENGCISHUBIANLIANG,BEDROOM3.4,18.00,0.5,0.472,2.622E-002,0.934,31.460,Natural,0.000,1.0,0.606,3.600E-002,0.118,0.000,-100.00,100.00,-100.00,15.37,28.78,40.00
 ZoneVentilation Airflow Stats Nominal, BEDROOM3.5,TONGFENGCISHUBIANLIANG,BEDROOM3.5,26.25,0.7,0.688,2.622E-002,0.934,31.460,Natural,0.000,1.0,0.606,3.600E-002,0.118,0.000,-100.00,100.00,-100.00,15.37,28.78,40.00
 ZoneVentilation Airflow Stats Nominal, BEDROOM3.6,TONGFENGCISHUBIANLIANG,BEDROOM3.6,26.25,0.7,0.688,2.622E-002,0.934,31.460,Natural,0.000,1.0,0.606,3.600E-002,0.118,0.000,-100.00,100.00,-100.00,15.37,28.78,40.00
 ZoneVentilation Airflow Stats Nominal, BEDROOM3.7,TONGFENGCISHUBIANLIANG,BEDROOM3.7,26.25,0.7,0.688,2.622E-002,0.934,31.460,Natural,0.000,1.0,0.606,3.600E-002,0.118,0.000,-100.00,100.00,-100.00,15.37,28.78,40.00
 ZoneVentilation Airflow Stats Nominal, BEDROOM3.8,TONGFENGCISHUBIANLIANG,BEDROOM3.8,26.25,0.7,0.688,2.622E-002,0.934,31.460,Natural,0.000,1.0,0.606,3.600E-002,0.118,0.000,-100.00,100.00,-100.00,15.37,28.78,40.00
 ZoneVentilation Airflow Stats Nominal, BEDROOM3.9,TONGFENGCISHUBIANLIANG,BEDROOM3.9,18.00,0.5,0.472,2.622E-002,0.934,31.460,Natural,0.000,1.0,0.606,3.600E-002,0.118,0.000,-100.00,100.00,-100.00,15.37,28.78,40.00
 ZoneVentilation Airflow Stats Nominal, BEDROOM3.10,TONGFENGCISHUBIANLIANG,BEDROOM3.10,15.00,0.4,0.393,2.622E-002,0.934,31.460,Natural,0.000,1.0,0.606,3.600E-002,0.118,0.000,-100.00,100.00,-100.00,15.37,28.78,40.00
 ZoneVentilation Airflow Stats Nominal, BEDROOM3.11,TONGFENGCISHUBIANLIANG,BEDROOM3.11,15.00,0.4,0.393,2.622E-002,0.934,31.460,Natural,0.000,1.0,0.606,3.600E-002,0.118,0.000,-100.00,100.00,-100.00,15.37,28.78,40.00
 ZoneVentilation Airflow Stats Nominal, BEDROOM3.12,TONGFENGCISHUBIANLIANG,BEDROOM3.12,18.00,0.5,0.472,2.622E-002,0.934,31.460,Natural,0.000,1.0,0.606,3.600E-002,0.118,0.000,-100.00,100.00,-100.00,15.37,28.78,40.00
! <AirFlow Model>, Simple
 AirFlow Model, Simple
! <RoomAir Model>, Zone Name, Mixing/Mundt/UCSDDV/UCSDCV/UCSDUFI/UCSDUFE/User Defined
RoomAir Model,KITCHEN1.1,Mixing/Well-Stirred
RoomAir Model,BEDROOM1.4,Mixing/Well-Stirred
RoomAir Model,KITCHEN1.2,Mixing/Well-Stirred
RoomAir Model,LIVINGROOM1.2,Mixing/Well-Stirred
RoomAir Model,BEDROOM1.7,Mixing/Well-Stirred
RoomAir Model,LIVINGROOM1.3,Mixing/Well-Stirred
RoomAir Model,BEDROOM1.9,Mixing/Well-Stirred
RoomAir Model,BEDROOM1.10,Mixing/Well-Stirred
RoomAir Model,BEDROOM1.11,Mixing/Well-Stirred
RoomAir Model,BEDROOM1.12,Mixing/Well-Stirred
RoomAir Model,STAIRCASE1.1,Mixing/Well-Stirred
RoomAir Model,KITCHEN1.3,Mixing/Well-Stirred
RoomAir Model,KITCHEN1.4,Mixing/Well-Stirred
RoomAir Model,LIVINGROOM1.4,Mixing/Well-Stirred
RoomAir Model,BEDROOM1.6,Mixing/Well-Stirred
RoomAir Model,BEDROOM1.8,Mixing/Well-Stirred
RoomAir Model,BEDROOM1.3,Mixing/Well-Stirred
RoomAir Model,BEDROOM1.2,Mixing/Well-Stirred
RoomAir Model,BEDROOM1.1,Mixing/Well-Stirred
RoomAir Model,LIVINGROOM1.1,Mixing/Well-Stirred
RoomAir Model,BEDROOM1.5,Mixing/Well-Stirred
RoomAir Model,LIVINGROOM2.4,Mixing/Well-Stirred
RoomAir Model,BEDROOM2.5,Mixing/Well-Stirred
RoomAir Model,LIVINGROOM2.1,Mixing/Well-Stirred
RoomAir Model,BEDROOM2.11,Mixing/Well-Stirred
RoomAir Model,BEDROOM2.10,Mixing/Well-Stirred
RoomAir Model,BEDROOM2.9,Mixing/Well-Stirred
RoomAir Model,LIVINGROOM2.3,Mixing/Well-Stirred
RoomAir Model,BEDROOM2.7,Mixing/Well-Stirred
RoomAir Model,LIVINGROOM2.2,Mixing/Well-Stirred
RoomAir Model,BEDROOM2.2,Mixing/Well-Stirred
RoomAir Model,BEDROOM2.8,Mixing/Well-Stirred
RoomAir Model,BEDROOM2.3,Mixing/Well-Stirred
RoomAir Model,BEDROOM2.1,Mixing/Well-Stirred
RoomAir Model,BEDROOM2.4,Mixing/Well-Stirred
RoomAir Model,BEDROOM2.6,Mixing/Well-Stirred
RoomAir Model,KITCHEN2.1,Mixing/Well-Stirred
RoomAir Model,KITCHEN2.4,Mixing/Well-Stirred
RoomAir Model,KITCHEN2.3,Mixing/Well-Stirred
RoomAir Model,STAIRCASE2.1,Mixing/Well-Stirred
RoomAir Model,BEDROOM2.12,Mixing/Well-Stirred
RoomAir Model,KITCHEN2.2,Mixing/Well-Stirred
RoomAir Model,LIVINGROOM3.4,Mixing/Well-Stirred
RoomAir Model,BEDROOM3.5,Mixing/Well-Stirred
RoomAir Model,LIVINGROOM3.1,Mixing/Well-Stirred
RoomAir Model,BEDROOM3.11,Mixing/Well-Stirred
RoomAir Model,BEDROOM3.10,Mixing/Well-Stirred
RoomAir Model,BEDROOM3.9,Mixing/Well-Stirred
RoomAir Model,LIVINGROOM3.3,Mixing/Well-Stirred
RoomAir Model,KITCHEN3.4,Mixing/Well-Stirred
RoomAir Model,KITCHEN3.1,Mixing/Well-Stirred
RoomAir Model,BEDROOM3.4,Mixing/Well-Stirred
RoomAir Model,BEDROOM3.6,Mixing/Well-Stirred
RoomAir Model,KITCHEN3.3,Mixing/Well-Stirred
RoomAir Model,KITCHEN3.2,Mixing/Well-Stirred
RoomAir Model,BEDROOM3.12,Mixing/Well-Stirred
RoomAir Model,STAIRCASE3.1,Mixing/Well-Stirred
RoomAir Model,BEDROOM3.3,Mixing/Well-Stirred
RoomAir Model,BEDROOM3.1,Mixing/Well-Stirred
RoomAir Model,BEDROOM3.8,Mixing/Well-Stirred
RoomAir Model,BEDROOM3.2,Mixing/Well-Stirred
RoomAir Model,LIVINGROOM3.2,Mixing/Well-Stirred
RoomAir Model,BEDROOM3.7,Mixing/Well-Stirred
! <AirflowNetwork Model:Control>, No Multizone or Distribution/Multizone with Distribution/Multizone without Distribution/Multizone with Distribution only during Fan Operation
AirflowNetwork Model:Control,NoMultizoneOrDistribution
! <Zone Volume Capacitance Multiplier>, Sensible Heat Capacity Multiplier, Moisture Capacity Multiplier, Carbon Dioxide Capacity Multiplier, Generic Contaminant Capacity Multiplier
Zone Volume Capacitance Multiplier,   1.000 ,   1.000,   1.000,   1.000
! <Environment>,Environment Name,Environment Type, Start Date, End Date, Start DayOfWeek, Duration {#days}, Source:Start DayOfWeek,  Use Daylight Saving, Use Holidays, Apply Weekend Holiday Rule,  Use Rain Values, Use Snow Values
! <Environment:Special Days>, Special Day Name, Special Day Type, Source, Start Date, Duration {#days}
! <Environment:Daylight Saving>, Daylight Saving Indicator, Source, Start Date, End Date
! <Environment:WarmupDays>, NumberofWarmupDays
Environment,RUNPERIOD,WeatherFileRunPeriod,01/01/2015,12/31/2016,Thursday,365,Use RunPeriod Specified Day,Yes,Yes,No,Yes,Yes
Environment:Daylight Saving,Yes,InputFile,03/08,11/01
Environment:WarmupDays, 12
! <Warmup Convergence Information>,Zone Name,Environment Type/Name,Average Warmup Temperature Difference {deltaC},Std Dev Warmup Temperature Difference {deltaC},Max Temperature Pass/Fail Convergence,Min Temperature Pass/Fail Convergence,Average Warmup Load Difference {W},Std Dev Warmup Load Difference {W},Heating Load Pass/Fail Convergence,Cooling Load Pass/Fail Convergence
 Warmup Convergence Information,KITCHEN1.1,RunPeriod: RUNPERIOD,7.3437446439E-002,6.5206243252E-002,Pass,Pass,0.0000000000,0.0000000000,Pass,Pass
 Warmup Convergence Information,BEDROOM1.4,RunPeriod: RUNPERIOD,0.1843604417,0.8397158260,Pass,Pass,2.1777121760E-002,0.1182199269,Pass,Pass
 Warmup Convergence Information,KITCHEN1.2,RunPeriod: RUNPERIOD,7.3425030845E-002,6.5228389625E-002,Pass,Pass,0.0000000000,0.0000000000,Pass,Pass
 Warmup Convergence Information,LIVINGROOM1.2,RunPeriod: RUNPERIOD,0.1966482302,0.8521248672,Pass,Pass,2.2731338409E-002,8.9926764864E-002,Pass,Pass
 Warmup Convergence Information,BEDROOM1.7,RunPeriod: RUNPERIOD,0.1864998662,0.8399496051,Pass,Pass,2.6139433056E-002,0.1372024680,Pass,Pass
 Warmup Convergence Information,LIVINGROOM1.3,RunPeriod: RUNPERIOD,0.1969721525,0.8570347363,Pass,Pass,2.2720307748E-002,9.0056697366E-002,Pass,Pass
 Warmup Convergence Information,BEDROOM1.9,RunPeriod: RUNPERIOD,0.1851711889,0.8446139247,Pass,Pass,2.1384950450E-002,0.1165099878,Pass,Pass
 Warmup Convergence Information,BEDROOM1.10,RunPeriod: RUNPERIOD,0.1819908259,0.8338128051,Pass,Pass,2.0547103829E-002,0.1135172502,Pass,Pass
 Warmup Convergence Information,BEDROOM1.11,RunPeriod: RUNPERIOD,0.1818528242,0.8330284554,Pass,Pass,2.0616442112E-002,0.1138075777,Pass,Pass
 Warmup Convergence Information,BEDROOM1.12,RunPeriod: RUNPERIOD,0.1850099397,0.8413016402,Pass,Pass,2.1819857271E-002,0.1184576059,Pass,Pass
 Warmup Convergence Information,STAIRCASE1.1,RunPeriod: RUNPERIOD,1.9903485395E-003,1.1043283447E-003,Pass,Pass,0.0000000000,0.0000000000,Pass,Pass
 Warmup Convergence Information,KITCHEN1.3,RunPeriod: RUNPERIOD,7.3437440199E-002,6.5206601228E-002,Pass,Pass,0.0000000000,0.0000000000,Pass,Pass
 Warmup Convergence Information,KITCHEN1.4,RunPeriod: RUNPERIOD,7.3425056450E-002,6.5228656295E-002,Pass,Pass,0.0000000000,0.0000000000,Pass,Pass
 Warmup Convergence Information,LIVINGROOM1.4,RunPeriod: RUNPERIOD,0.1966583642,0.8521803887,Pass,Pass,2.2731809636E-002,8.9927938320E-002,Pass,Pass
 Warmup Convergence Information,BEDROOM1.6,RunPeriod: RUNPERIOD,0.1863014737,0.8367061087,Pass,Pass,2.6606465730E-002,0.1394808161,Pass,Pass
 Warmup Convergence Information,BEDROOM1.8,RunPeriod: RUNPERIOD,0.1863036692,0.8367173538,Pass,Pass,2.6605291145E-002,0.1394754184,Pass,Pass
 Warmup Convergence Information,BEDROOM1.3,RunPeriod: RUNPERIOD,0.1811384446,0.8313573079,Pass,Pass,2.0533957932E-002,0.1134008328,Pass,Pass
 Warmup Convergence Information,BEDROOM1.2,RunPeriod: RUNPERIOD,0.1812783377,0.8321522683,Pass,Pass,2.0463317647E-002,0.1131063536,Pass,Pass
 Warmup Convergence Information,BEDROOM1.1,RunPeriod: RUNPERIOD,0.1845373894,0.8431193795,Pass,Pass,2.1331456628E-002,0.1162317601,Pass,Pass
 Warmup Convergence Information,LIVINGROOM1.1,RunPeriod: RUNPERIOD,0.1969632561,0.8569859212,Pass,Pass,2.2719757015E-002,9.0055196554E-002,Pass,Pass
 Warmup Convergence Information,BEDROOM1.5,RunPeriod: RUNPERIOD,0.1864977535,0.8399389015,Pass,Pass,2.6140522670E-002,0.1372074650,Pass,Pass
 Warmup Convergence Information,LIVINGROOM2.4,RunPeriod: RUNPERIOD,0.2032666342,0.8850893734,Pass,Pass,2.2290943548E-002,8.9479104939E-002,Pass,Pass
 Warmup Convergence Information,BEDROOM2.5,RunPeriod: RUNPERIOD,0.1917499048,0.8671920559,Pass,Pass,2.4090309527E-002,0.1271659999,Pass,Pass
 Warmup Convergence Information,LIVINGROOM2.1,RunPeriod: RUNPERIOD,0.2036798008,0.8903393597,Pass,Pass,2.2288528317E-002,8.9742361739E-002,Pass,Pass
 Warmup Convergence Information,BEDROOM2.11,RunPeriod: RUNPERIOD,0.1864866569,0.8569078385,Pass,Pass,1.9780233324E-002,0.1074432578,Pass,Pass
 Warmup Convergence Information,BEDROOM2.10,RunPeriod: RUNPERIOD,0.1866358226,0.8577420846,Pass,Pass,1.9751251938E-002,0.1071609313,Pass,Pass
 Warmup Convergence Information,BEDROOM2.9,RunPeriod: RUNPERIOD,0.1896422341,0.8675534025,Pass,Pass,2.0382157984E-002,0.1105346996,Pass,Pass
 Warmup Convergence Information,LIVINGROOM2.3,RunPeriod: RUNPERIOD,0.2036854747,0.8903707004,Pass,Pass,2.2289254038E-002,8.9744567413E-002,Pass,Pass
 Warmup Convergence Information,BEDROOM2.7,RunPeriod: RUNPERIOD,0.1917518449,0.8672015014,Pass,Pass,2.4089470493E-002,0.1271623077,Pass,Pass
 Warmup Convergence Information,LIVINGROOM2.2,RunPeriod: RUNPERIOD,0.2032596861,0.8850509943,Pass,Pass,2.2290273459E-002,8.9477042986E-002,Pass,Pass
 Warmup Convergence Information,BEDROOM2.2,RunPeriod: RUNPERIOD,0.1859889348,0.8563753175,Pass,Pass,1.9709188621E-002,0.1066894477,Pass,Pass
 Warmup Convergence Information,BEDROOM2.8,RunPeriod: RUNPERIOD,0.1914850645,0.8636484026,Pass,Pass,2.4552565108E-002,0.1293550607,Pass,Pass
 Warmup Convergence Information,BEDROOM2.3,RunPeriod: RUNPERIOD,0.1858378386,0.8555302603,Pass,Pass,1.9738899486E-002,0.1069757910,Pass,Pass
 Warmup Convergence Information,BEDROOM2.1,RunPeriod: RUNPERIOD,0.1890340735,0.8662299759,Pass,Pass,2.0344899954E-002,0.1101656409,Pass,Pass
 Warmup Convergence Information,BEDROOM2.4,RunPeriod: RUNPERIOD,0.1887878775,0.8625084203,Pass,Pass,2.0539601310E-002,0.1121468109,Pass,Pass
 Warmup Convergence Information,BEDROOM2.6,RunPeriod: RUNPERIOD,0.1914830350,0.8636383718,Pass,Pass,2.4553469598E-002,0.1293590843,Pass,Pass
 Warmup Convergence Information,KITCHEN2.1,RunPeriod: RUNPERIOD,7.5347696969E-002,6.4575518060E-002,Pass,Pass,0.0000000000,0.0000000000,Pass,Pass
 Warmup Convergence Information,KITCHEN2.4,RunPeriod: RUNPERIOD,7.5336109647E-002,6.4565452026E-002,Pass,Pass,0.0000000000,0.0000000000,Pass,Pass
 Warmup Convergence Information,KITCHEN2.3,RunPeriod: RUNPERIOD,7.5347387258E-002,6.4576653349E-002,Pass,Pass,0.0000000000,0.0000000000,Pass,Pass
 Warmup Convergence Information,STAIRCASE2.1,RunPeriod: RUNPERIOD,2.2105077350E-003,1.3260107323E-003,Pass,Pass,0.0000000000,0.0000000000,Pass,Pass
 Warmup Convergence Information,BEDROOM2.12,RunPeriod: RUNPERIOD,0.1894126710,0.8639279472,Pass,Pass,2.0573208214E-002,0.1124786648,Pass,Pass
 Warmup Convergence Information,KITCHEN2.2,RunPeriod: RUNPERIOD,7.5336390045E-002,6.4564352425E-002,Pass,Pass,0.0000000000,0.0000000000,Pass,Pass
 Warmup Convergence Information,LIVINGROOM3.4,RunPeriod: RUNPERIOD,0.2123012717,0.9356651680,Pass,Pass,2.0132914700E-002,8.5562977442E-002,Pass,Pass
 Warmup Convergence Information,BEDROOM3.5,RunPeriod: RUNPERIOD,0.2012031510,0.9177999855,Pass,Pass,2.0570408089E-002,0.1075721351,Pass,Pass
 Warmup Convergence Information,LIVINGROOM3.1,RunPeriod: RUNPERIOD,0.2125724903,0.9399080344,Pass,Pass,2.0147773462E-002,8.5794896275E-002,Pass,Pass
 Warmup Convergence Information,BEDROOM3.11,RunPeriod: RUNPERIOD,0.1943747145,0.9024862956,Pass,Pass,1.8257150341E-002,9.3397867826E-002,Pass,Pass
 Warmup Convergence Information,BEDROOM3.10,RunPeriod: RUNPERIOD,0.1945208569,0.9032513756,Pass,Pass,1.8237248860E-002,9.3191192654E-002,Pass,Pass
 Warmup Convergence Information,BEDROOM3.9,RunPeriod: RUNPERIOD,0.1975409615,0.9116903792,Pass,Pass,1.8835868310E-002,9.6650111626E-002,Pass,Pass
 Warmup Convergence Information,LIVINGROOM3.3,RunPeriod: RUNPERIOD,0.2125706460,0.9399008224,Pass,Pass,2.0148362445E-002,8.5794565677E-002,Pass,Pass
 Warmup Convergence Information,KITCHEN3.4,RunPeriod: RUNPERIOD,7.4782301103E-002,6.2887750638E-002,Pass,Pass,0.0000000000,0.0000000000,Pass,Pass
 Warmup Convergence Information,KITCHEN3.1,RunPeriod: RUNPERIOD,7.4794822774E-002,6.2911217179E-002,Pass,Pass,0.0000000000,0.0000000000,Pass,Pass
 Warmup Convergence Information,BEDROOM3.4,RunPeriod: RUNPERIOD,0.1966940267,0.9070950348,Pass,Pass,1.8945883762E-002,9.7842232756E-002,Pass,Pass
 Warmup Convergence Information,BEDROOM3.6,RunPeriod: RUNPERIOD,0.2008784735,0.9143595631,Pass,Pass,2.0744174408E-002,0.1093810915,Pass,Pass
