Program Version,EnergyPlus, Version 8.7.0-78a111df4a, YMD=2019.05.28 05:48
! <Version>, Version ID
 Version, 8.4
! <Timesteps per Hour>, #TimeSteps, Minutes per TimeStep {minutes}
 Timesteps per Hour,  4, 15
! <System Convergence Limits>, Minimum System TimeStep {minutes}, Max HVAC Iterations, Minimum Plant Iterations, Maximum Plant Iterations
 System Convergence Limits, 1, 20, 2, 8
! <Simulation Control>, Do Zone Sizing, Do System Sizing, Do Plant Sizing, Do Design Days, Do Weather Simulation, Do HVAC Sizing Simulation
 Simulation Control, No, No, No, Yes, Yes, No
! <Output Reporting Tolerances>, Tolerance for Time Heating Setpoint Not Met, Tolerance for Zone Cooling Setpoint Not Met Time
 Output Reporting Tolerances, 0.200, 0.200, 
! <Site:GroundTemperature:BuildingSurface>,Jan{C},Feb{C},Mar{C},Apr{C},May{C},Jun{C},Jul{C},Aug{C},Sep{C},Oct{C},Nov{C},Dec{C}
 Site:GroundTemperature:BuildingSurface,  17.73,  17.58,  14.99,  15.72,  19.24,  24.78,  25.36,  25.42,  25.45,  23.67,  19.98,  19.57
! <Site:GroundTemperature:FCfactorMethod>,Jan{C},Feb{C},Mar{C},Apr{C},May{C},Jun{C},Jul{C},Aug{C},Sep{C},Oct{C},Nov{C},Dec{C}
 Site:GroundTemperature:FCfactorMethod,  13.31,  10.23,   9.39,  10.12,  14.28,  18.95,  23.34,  26.51,  27.44,  25.95,  22.35,  17.82
! <Site:GroundTemperature:Shallow>,Jan{C},Feb{C},Mar{C},Apr{C},May{C},Jun{C},Jul{C},Aug{C},Sep{C},Oct{C},Nov{C},Dec{C}
 Site:GroundTemperature:Shallow,  13.00,  13.00,  13.00,  13.00,  13.00,  13.00,  13.00,  13.00,  13.00,  13.00,  13.00,  13.00
! <Site:GroundTemperature:Deep>,Jan{C},Feb{C},Mar{C},Apr{C},May{C},Jun{C},Jul{C},Aug{C},Sep{C},Oct{C},Nov{C},Dec{C}
 Site:GroundTemperature:Deep,  16.00,  16.00,  16.00,  16.00,  16.00,  16.00,  16.00,  16.00,  16.00,  16.00,  16.00,  16.00
! <Site:GroundReflectance>,Jan{dimensionless},Feb{dimensionless},Mar{dimensionless},Apr{dimensionless},May{dimensionless},Jun{dimensionless},Jul{dimensionless},Aug{dimensionless},Sep{dimensionless},Oct{dimensionless},Nov{dimensionless},Dec{dimensionless}
 Site:GroundReflectance,  0.20,  0.20,  0.20,  0.20,  0.20,  0.20,  0.20,  0.20,  0.20,  0.20,  0.20,  0.20
! <Site:GroundReflectance:SnowModifier>, Normal, Daylighting {dimensionless}
 Site:GroundReflectance:SnowModifier,   1.000,   1.000
! <Site:GroundReflectance:Snow>,Jan{dimensionless},Feb{dimensionless},Mar{dimensionless},Apr{dimensionless},May{dimensionless},Jun{dimensionless},Jul{dimensionless},Aug{dimensionless},Sep{dimensionless},Oct{dimensionless},Nov{dimensionless},Dec{dimensionless}
 Site:GroundReflectance:Snow,  0.20,  0.20,  0.20,  0.20,  0.20,  0.20,  0.20,  0.20,  0.20,  0.20,  0.20,  0.20
! <Site:GroundReflectance:Snow:Daylighting>,Jan{dimensionless},Feb{dimensionless},Mar{dimensionless},Apr{dimensionless},May{dimensionless},Jun{dimensionless},Jul{dimensionless},Aug{dimensionless},Sep{dimensionless},Oct{dimensionless},Nov{dimensionless},Dec{dimensionless}
 Site:GroundReflectance:Snow:Daylighting,  0.20,  0.20,  0.20,  0.20,  0.20,  0.20,  0.20,  0.20,  0.20,  0.20,  0.20,  0.20
! <Environment:Weather Station>,Wind Sensor Height Above Ground {m},Wind Speed Profile Exponent {},Wind Speed Profile Boundary Layer Thickness {m},Air Temperature Sensor Height Above Ground {m},Wind Speed Modifier Coefficient-Internal,Temperature Modifier Coefficient-Internal
Environment:Weather Station,10.000,0.140,270.000,1.500,1.586,9.750E-003
! <Site:Location>, Location Name, Latitude {N+/S- Deg}, Longitude {E+/W- Deg},  Time Zone Number {GMT+/-}, Elevation {m},  Standard Pressure at Elevation {Pa}, Standard RhoAir at Elevation
Site:Location,Chongqing Shapingba Chongqing CHN CSWD WMO#=575160,29.58,106.47,8.00,259.10,98251,1.1678
! <Building Information>, Building Name,North Axis {deg},Terrain,  Loads Convergence Tolerance Value,Temperature Convergence Tolerance Value,  Solar Distribution,Maximum Number of Warmup Days,Minimum Number of Warmup Days
 Building Information,3cengzhuzhai,338.619,City,4.00000E-002,0.40000,FullInteriorAndExterior,25,6
! <Inside Convection Algorithm>, Algorithm {Simple | TARP | CeilingDiffuser | AdaptiveConvectionAlgorithm}
Inside Convection Algorithm,AdaptiveConvectionAlgorithm
! <Outside Convection Algorithm>, Algorithm {SimpleCombined | TARP | MoWitt | DOE-2 | AdaptiveConvectionAlgorithm}
Outside Convection Algorithm,AdaptiveConvectionAlgorithm
! <Sky Radiance Distribution>, Value {Anisotropic}
Sky Radiance Distribution,Anisotropic
! <Zone Air Solution Algorithm>, Value {ThirdOrderBackwardDifference | AnalyticalSolution | EulerMethod}
 Zone Air Solution Algorithm, ThirdOrderBackwardDifference
! <Zone Air Carbon Dioxide Balance Simulation>, Simulation {Yes/No}, Carbon Dioxide Concentration
 Zone Air Carbon Dioxide Balance Simulation, No,N/A
! <Zone Air Generic Contaminant Balance Simulation>, Simulation {Yes/No}, Generic Contaminant Concentration
 Zone Air Generic Contaminant Balance Simulation, No,N/A
! <Zone Air Mass Flow Balance Simulation>, Enforce Mass Balance, Adjust Zone Mixing, Adjust Zone Infiltration {AddInfiltration | AdjustInfiltration | None}, Infiltration Zones {MixingSourceZonesOnly | AllZones}
 Zone Air Mass Flow Balance Simulation, No,N/A,N/A,N/A
! <Environment:Site Atmospheric Variation>,Wind Speed Profile Exponent {},Wind Speed Profile Boundary Layer Thickness {m},Air Temperature Gradient Coefficient {K/m}
Environment:Site Atmospheric Variation,0.330,460.000,6.500000E-003
! <Surface Geometry>,Starting Corner,Vertex Input Direction,Coordinate System,Daylight Reference Point Coordinate System,Rectangular (Simple) Surface Coordinate System
 Surface Geometry,UpperLeftCorner,Counterclockwise,RelativeCoordinateSystem,RelativeCoordinateSystem,RelativeToZoneOrigin
! <Surface Heat Transfer Algorithm>, Value {CTF - ConductionTransferFunction | EMPD - MoisturePenetrationDepthConductionTransferFunction | CondFD - ConductionFiniteDifference | HAMT - CombinedHeatAndMoistureFiniteElement} - Description,Inside Surface Max Temperature Limit{C}, Surface Convection Coefficient Lower Limit {W/m2-K}, Surface Convection Coefficient Upper Limit {W/m2-K}
Surface Heat Transfer Algorithm, CTF - ConductionTransferFunction,200,0.10,1000.0
! <Shading Summary>, Number of Fixed Detached Shades, Number of Building Detached Shades, Number of Attached Shades
 Shading Summary,0,0,0
! <Zone Summary>, Number of Zones, Number of Zone Surfaces, Number of SubSurfaces
 Zone Summary,63,498,60
! <Zone Information>,Zone Name,North Axis {deg},Origin X-Coordinate {m},Origin Y-Coordinate {m},Origin Z-Coordinate {m},Centroid X-Coordinate {m},Centroid Y-Coordinate {m},Centroid Z-Coordinate {m},Type,Zone Multiplier,Zone List Multiplier,Minimum X {m},Maximum X {m},Minimum Y {m},Maximum Y {m},Minimum Z {m},Maximum Z {m},Ceiling Height {m},Volume {m3},Zone Inside Convection Algorithm {Simple-Detailed-CeilingDiffuser-TrombeWall},Zone Outside Convection Algorithm {Simple-Detailed-Tarp-MoWitt-DOE-2-BLAST}, Floor Area {m2},Exterior Gross Wall Area {m2},Exterior Net Wall Area {m2},Exterior Window Area {m2}, Number of Surfaces, Number of SubSurfaces, Number of Shading SubSurfaces,  Part of Total Building Area
 Zone Information, KITCHEN1.1,0.0,8.60,3.00,0.00,7.21,8.46,1.50,1,1,1,5.27,9.15,5.93,10.99,0.00,3.00,3.00,32.40,AdaptiveConvectionAlgorithm,AdaptiveConvectionAlgorithm,10.80,0.00,0.00,0.00,6,0,0,Yes
 Zone Information, BEDROOM1.4,0.0,16.00,0.00,0.00,17.15,8.32,1.50,1,1,1,13.81,20.49,5.83,10.81,0.00,3.00,3.00,54.00,AdaptiveConvectionAlgorithm,AdaptiveConvectionAlgorithm,18.00,27.00,24.33,2.67,6,2,0,Yes
 Zone Information, KITCHEN1.2,0.0,11.00,3.00,0.00,9.45,9.34,1.50,1,1,1,7.51,11.38,6.80,11.87,0.00,3.00,3.00,32.40,AdaptiveConvectionAlgorithm,AdaptiveConvectionAlgorithm,10.80,0.00,0.00,0.00,6,0,0,Yes
 Zone Information, LIVINGROOM1.2,0.0,13.50,3.00,0.00,14.57,11.34,1.50,1,1,1,9.74,19.39,7.68,15.00,0.00,3.00,3.00,116.10,AdaptiveConvectionAlgorithm,AdaptiveConvectionAlgorithm,38.70,13.50,11.54,1.96,8,1,0,Yes
 Zone Information, BEDROOM1.7,0.0,0.00,11.00,0.00,-1.16,13.24,1.50,1,1,1,-5.29,2.97,10.24,16.24,0.00,3.00,3.00,78.75,AdaptiveConvectionAlgorithm,AdaptiveConvectionAlgorithm,26.25,10.50,8.41,2.09,6,1,0,Yes
 Zone Information, LIVINGROOM1.3,0.0,0.00,14.50,0.00,-2.10,17.16,1.50,1,1,1,-6.93,2.72,13.50,20.83,0.00,3.00,3.00,116.10,AdaptiveConvectionAlgorithm,AdaptiveConvectionAlgorithm,38.70,13.50,10.82,2.68,8,1,0,Yes
 Zone Information, BEDROOM1.9,0.0,0.00,19.00,0.00,-4.68,20.18,1.50,1,1,1,-8.02,-1.34,17.69,22.67,0.00,3.00,3.00,54.00,AdaptiveConvectionAlgorithm,AdaptiveConvectionAlgorithm,18.00,27.00,24.31,2.69,6,2,0,Yes
 Zone Information, BEDROOM1.10,0.0,6.00,19.00,0.00,0.44,22.19,1.50,1,1,1,-2.43,3.32,19.88,24.50,0.00,3.00,3.00,45.00,AdaptiveConvectionAlgorithm,AdaptiveConvectionAlgorithm,15.00,15.00,14.10,0.90,7,1,0,Yes
 Zone Information, BEDROOM1.11,0.0,11.00,19.00,0.00,5.10,24.01,1.50,1,1,1,2.22,7.97,21.70,26.32,0.00,3.00,3.00,45.00,AdaptiveConvectionAlgorithm,AdaptiveConvectionAlgorithm,15.00,15.00,14.10,0.90,7,1,0,Yes
 Zone Information, BEDROOM1.12,0.0,16.00,19.00,0.00,10.22,26.02,1.50,1,1,1,6.88,13.56,23.53,28.51,0.00,3.00,3.00,54.00,AdaptiveConvectionAlgorithm,AdaptiveConvectionAlgorithm,18.00,27.00,24.80,2.20,6,2,0,Yes
 Zone Information, STAIRCASE1.1,0.0,7.50,7.50,0.00,6.23,14.25,1.50,1,1,1,1.70,10.77,9.72,18.79,0.00,3.00,3.00,147.00,AdaptiveConvectionAlgorithm,AdaptiveConvectionAlgorithm,49.00,0.00,0.00,0.00,14,0,0,Yes
 Zone Information, KITCHEN1.3,0.0,8.60,14.50,0.00,3.02,19.17,1.50,1,1,1,1.08,4.96,16.64,21.70,0.00,3.00,3.00,32.40,AdaptiveConvectionAlgorithm,AdaptiveConvectionAlgorithm,10.80,0.00,0.00,0.00,6,0,0,Yes
 Zone Information, KITCHEN1.4,0.0,11.00,14.50,0.00,5.25,20.04,1.50,1,1,1,3.32,7.19,17.51,22.58,0.00,3.00,3.00,32.40,AdaptiveConvectionAlgorithm,AdaptiveConvectionAlgorithm,10.80,0.00,0.00,0.00,6,0,0,Yes
 Zone Information, LIVINGROOM1.4,0.0,13.40,14.50,0.00,10.38,22.05,1.50,1,1,1,5.55,15.20,18.39,25.71,0.00,3.00,3.00,116.10,AdaptiveConvectionAlgorithm,AdaptiveConvectionAlgorithm,38.70,13.50,11.54,1.96,8,1,0,Yes
 Zone Information, BEDROOM1.6,0.0,14.50,7.50,0.00,13.62,15.27,1.50,1,1,1,9.49,17.75,12.27,18.26,0.00,3.00,3.00,78.75,AdaptiveConvectionAlgorithm,AdaptiveConvectionAlgorithm,26.25,10.50,8.97,1.53,6,1,0,Yes
 Zone Information, BEDROOM1.8,0.0,14.50,11.00,0.00,12.35,18.53,1.50,1,1,1,8.22,16.48,15.53,21.52,0.00,3.00,3.00,78.75,AdaptiveConvectionAlgorithm,AdaptiveConvectionAlgorithm,26.25,10.50,8.97,1.53,6,1,0,Yes
 Zone Information, BEDROOM1.3,0.0,11.00,0.00,0.00,12.02,6.32,1.50,1,1,1,9.15,14.90,4.01,8.63,0.00,3.00,3.00,45.00,AdaptiveConvectionAlgorithm,AdaptiveConvectionAlgorithm,15.00,15.00,13.64,1.36,7,1,0,Yes
 Zone Information, BEDROOM1.2,0.0,6.00,0.00,0.00,7.37,4.50,1.50,1,1,1,4.49,10.24,2.19,6.80,0.00,3.00,3.00,45.00,AdaptiveConvectionAlgorithm,AdaptiveConvectionAlgorithm,15.00,15.00,13.64,1.36,7,1,0,Yes
 Zone Information, BEDROOM1.1,0.0,0.00,0.00,0.00,2.25,2.49,1.50,1,1,1,-1.09,5.59,0.00,4.98,0.00,3.00,3.00,54.00,AdaptiveConvectionAlgorithm,AdaptiveConvectionAlgorithm,18.00,27.00,23.85,3.15,6,2,0,Yes
 Zone Information, LIVINGROOM1.1,0.0,0.00,3.00,0.00,2.09,6.46,1.50,1,1,1,-2.73,6.91,2.79,10.12,0.00,3.00,3.00,116.10,AdaptiveConvectionAlgorithm,AdaptiveConvectionAlgorithm,38.70,13.50,10.82,2.68,8,1,0,Yes
 Zone Information, BEDROOM1.5,0.0,0.00,7.50,0.00,0.12,9.98,1.50,1,1,1,-4.01,4.25,6.98,12.98,0.00,3.00,3.00,78.75,AdaptiveConvectionAlgorithm,AdaptiveConvectionAlgorithm,26.25,10.50,8.41,2.09,6,1,0,Yes
 Zone Information, LIVINGROOM2.4,0.0,13.40,14.50,0.00,10.38,22.05,4.50,1,1,1,5.55,15.20,18.39,25.71,3.00,6.00,3.00,116.10,AdaptiveConvectionAlgorithm,AdaptiveConvectionAlgorithm,38.70,13.50,11.54,1.96,8,1,0,Yes
 Zone Information, BEDROOM2.5,0.0,0.00,7.50,0.00,0.12,9.98,4.50,1,1,1,-4.01,4.25,6.98,12.98,3.00,6.00,3.00,78.75,AdaptiveConvectionAlgorithm,AdaptiveConvectionAlgorithm,26.25,10.50,8.41,2.09,6,1,0,Yes
 Zone Information, LIVINGROOM2.1,0.0,0.00,3.00,0.00,2.09,6.46,4.50,1,1,1,-2.73,6.91,2.79,10.12,3.00,6.00,3.00,116.10,AdaptiveConvectionAlgorithm,AdaptiveConvectionAlgorithm,38.70,13.50,10.82,2.68,8,1,0,Yes
 Zone Information, BEDROOM2.11,0.0,11.00,19.00,0.00,5.10,24.01,4.50,1,1,1,2.22,7.97,21.70,26.32,3.00,6.00,3.00,45.00,AdaptiveConvectionAlgorithm,AdaptiveConvectionAlgorithm,15.00,15.00,14.10,0.90,7,1,0,Yes
 Zone Information, BEDROOM2.10,0.0,6.00,19.00,0.00,0.44,22.19,4.50,1,1,1,-2.43,3.32,19.88,24.50,3.00,6.00,3.00,45.00,AdaptiveConvectionAlgorithm,AdaptiveConvectionAlgorithm,15.00,15.00,14.10,0.90,7,1,0,Yes
 Zone Information, BEDROOM2.9,0.0,0.00,19.00,0.00,-4.68,20.18,4.50,1,1,1,-8.02,-1.34,17.69,22.67,3.00,6.00,3.00,54.00,AdaptiveConvectionAlgorithm,AdaptiveConvectionAlgorithm,18.00,27.00,24.31,2.69,6,2,0,Yes
 Zone Information, LIVINGROOM2.3,0.0,0.00,14.50,0.00,-2.10,17.16,4.50,1,1,1,-6.93,2.72,13.50,20.83,3.00,6.00,3.00,116.10,AdaptiveConvectionAlgorithm,AdaptiveConvectionAlgorithm,38.70,13.50,10.82,2.68,8,1,0,Yes
 Zone Information, BEDROOM2.7,0.0,0.00,11.00,0.00,-1.16,13.24,4.50,1,1,1,-5.29,2.97,10.24,16.24,3.00,6.00,3.00,78.75,AdaptiveConvectionAlgorithm,AdaptiveConvectionAlgorithm,26.25,10.50,8.41,2.09,6,1,0,Yes
 Zone Information, LIVINGROOM2.2,0.0,13.50,3.00,0.00,14.57,11.34,4.50,1,1,1,9.74,19.39,7.68,15.00,3.00,6.00,3.00,116.10,AdaptiveConvectionAlgorithm,AdaptiveConvectionAlgorithm,38.70,13.50,11.54,1.96,8,1,0,Yes
 Zone Information, BEDROOM2.2,0.0,6.00,0.00,0.00,7.37,4.50,4.50,1,1,1,4.49,10.24,2.19,6.80,3.00,6.00,3.00,45.00,AdaptiveConvectionAlgorithm,AdaptiveConvectionAlgorithm,15.00,15.00,13.64,1.36,7,1,0,Yes
 Zone Information, BEDROOM2.8,0.0,14.50,11.00,0.00,12.35,18.53,4.50,1,1,1,8.22,16.48,15.53,21.52,3.00,6.00,3.00,78.75,AdaptiveConvectionAlgorithm,AdaptiveConvectionAlgorithm,26.25,10.50,8.97,1.53,6,1,0,Yes
 Zone Information, BEDROOM2.3,0.0,11.00,0.00,0.00,12.02,6.32,4.50,1,1,1,9.15,14.90,4.01,8.63,3.00,6.00,3.00,45.00,AdaptiveConvectionAlgorithm,AdaptiveConvectionAlgorithm,15.00,15.00,13.64,1.36,7,1,0,Yes
 Zone Information, BEDROOM2.1,0.0,0.00,0.00,0.00,2.25,2.49,4.50,1,1,1,-1.09,5.59,0.00,4.98,3.00,6.00,3.00,54.00,AdaptiveConvectionAlgorithm,AdaptiveConvectionAlgorithm,18.00,27.00,23.85,3.15,6,2,0,Yes
 Zone Information, BEDROOM2.4,0.0,16.00,0.00,0.00,17.15,8.32,4.50,1,1,1,13.81,20.49,5.83,10.81,3.00,6.00,3.00,54.00,AdaptiveConvectionAlgorithm,AdaptiveConvectionAlgorithm,18.00,27.00,24.33,2.67,6,2,0,Yes
 Zone Information, BEDROOM2.6,0.0,14.50,7.50,0.00,13.62,15.27,4.50,1,1,1,9.49,17.75,12.27,18.26,3.00,6.00,3.00,78.75,AdaptiveConvectionAlgorithm,AdaptiveConvectionAlgorithm,26.25,10.50,8.97,1.53,6,1,0,Yes
 Zone Information, KITCHEN2.1,0.0,8.60,3.00,0.00,7.21,8.46,4.50,1,1,1,5.27,9.15,5.93,10.99,3.00,6.00,3.00,32.40,AdaptiveConvectionAlgorithm,AdaptiveConvectionAlgorithm,10.80,0.00,0.00,0.00,6,0,0,Yes
 Zone Information, KITCHEN2.4,0.0,11.00,14.50,0.00,5.25,20.04,4.50,1,1,1,3.32,7.19,17.51,22.58,3.00,6.00,3.00,32.40,AdaptiveConvectionAlgorithm,AdaptiveConvectionAlgorithm,10.80,0.00,0.00,0.00,6,0,0,Yes
 Zone Information, KITCHEN2.3,0.0,8.60,14.50,0.00,3.02,19.17,4.50,1,1,1,1.08,4.96,16.64,21.70,3.00,6.00,3.00,32.40,AdaptiveConvectionAlgorithm,AdaptiveConvectionAlgorithm,10.80,0.00,0.00,0.00,6,0,0,Yes
 Zone Information, STAIRCASE2.1,0.0,7.50,7.50,0.00,6.23,14.25,4.50,1,1,1,1.70,10.77,9.72,18.79,3.00,6.00,3.00,147.00,AdaptiveConvectionAlgorithm,AdaptiveConvectionAlgorithm,49.00,0.00,0.00,0.00,14,0,0,Yes
 Zone Information, BEDROOM2.12,0.0,16.00,19.00,0.00,10.22,26.02,4.50,1,1,1,6.88,13.56,23.53,28.51,3.00,6.00,3.00,54.00,AdaptiveConvectionAlgorithm,AdaptiveConvectionAlgorithm,18.00,27.00,24.80,2.20,6,2,0,Yes
 Zone Information, KITCHEN2.2,0.0,11.00,3.00,0.00,9.45,9.34,4.50,1,1,1,7.51,11.38,6.80,11.87,3.00,6.00,3.00,32.40,AdaptiveConvectionAlgorithm,AdaptiveConvectionAlgorithm,10.80,0.00,0.00,0.00,6,0,0,Yes
 Zone Information, LIVINGROOM3.4,0.0,13.40,14.50,0.00,10.38,22.05,7.50,1,1,1,5.55,15.20,18.39,25.71,6.00,9.00,3.00,116.10,AdaptiveConvectionAlgorithm,AdaptiveConvectionAlgorithm,38.70,13.50,11.54,1.96,8,1,0,Yes
 Zone Information, BEDROOM3.5,0.0,0.00,7.50,0.00,0.12,9.98,7.50,1,1,1,-4.01,4.25,6.98,12.98,6.00,9.00,3.00,78.75,AdaptiveConvectionAlgorithm,AdaptiveConvectionAlgorithm,26.25,10.50,8.41,2.09,6,1,0,Yes
 Zone Information, LIVINGROOM3.1,0.0,0.00,3.00,0.00,2.09,6.46,7.50,1,1,1,-2.73,6.91,2.79,10.12,6.00,9.00,3.00,116.10,AdaptiveConvectionAlgorithm,AdaptiveConvectionAlgorithm,38.70,13.50,10.82,2.68,8,1,0,Yes
 Zone Information, BEDROOM3.11,0.0,11.00,19.00,0.00,5.10,24.01,7.50,1,1,1,2.22,9.48,21.70,27.34,6.00,9.00,3.00,45.00,AdaptiveConvectionAlgorithm,AdaptiveConvectionAlgorithm,15.00,15.00,14.10,0.90,7,1,0,Yes
 Zone Information, BEDROOM3.10,0.0,6.00,19.00,0.00,0.44,22.19,7.50,1,1,1,-2.43,4.83,19.88,25.52,6.00,9.00,3.00,45.00,AdaptiveConvectionAlgorithm,AdaptiveConvectionAlgorithm,15.00,15.00,14.10,0.90,7,1,0,Yes
 Zone Information, BEDROOM3.9,0.0,0.00,19.00,0.00,-4.68,20.18,7.50,1,1,1,-8.02,-0.76,17.69,23.33,6.00,9.00,3.00,54.00,AdaptiveConvectionAlgorithm,AdaptiveConvectionAlgorithm,18.00,27.00,24.31,2.69,6,2,0,Yes
 Zone Information, LIVINGROOM3.3,0.0,0.00,14.50,0.00,-2.10,17.16,7.50,1,1,1,-6.93,2.72,13.50,20.83,6.00,9.00,3.00,116.10,AdaptiveConvectionAlgorithm,AdaptiveConvectionAlgorithm,38.70,13.50,10.82,2.68,8,1,0,Yes
 Zone Information, KITCHEN3.4,0.0,11.00,14.50,0.00,5.25,20.04,7.50,1,1,1,3.32,7.19,17.51,22.58,6.00,9.00,3.00,32.40,AdaptiveConvectionAlgorithm,AdaptiveConvectionAlgorithm,10.80,0.00,0.00,0.00,6,0,0,Yes
 Zone Information, KITCHEN3.1,0.0,8.60,3.00,0.00,7.21,8.46,7.50,1,1,1,5.27,9.15,5.93,10.99,6.00,9.00,3.00,32.40,AdaptiveConvectionAlgorithm,AdaptiveConvectionAlgorithm,10.80,0.00,0.00,0.00,6,0,0,Yes
 Zone Information, BEDROOM3.4,0.0,16.00,0.00,0.00,17.15,8.32,7.50,1,1,1,13.81,22.30,5.83,10.81,6.00,9.00,3.00,54.00,AdaptiveConvectionAlgorithm,AdaptiveConvectionAlgorithm,18.00,27.00,24.33,2.67,6,2,0,Yes
 Zone Information, BEDROOM3.6,0.0,14.50,7.50,0.00,13.62,15.27,7.50,1,1,1,9.49,17.75,12.27,18.26,6.00,9.00,3.00,78.75,AdaptiveConvectionAlgorithm,AdaptiveConvectionAlgorithm,26.25,10.50,8.97,1.53,6,1,0,Yes
 Zone Information, KITCHEN3.3,0.0,8.60,14.50,0.00,3.02,19.17,7.50,1,1,1,1.08,4.96,16.64,21.70,6.00,9.00,3.00,32.40,AdaptiveConvectionAlgorithm,AdaptiveConvectionAlgorithm,10.80,0.00,0.00,0.00,6,0,0,Yes
 Zone Information, KITCHEN3.2,0.0,11.00,3.00,0.00,9.45,9.34,7.50,1,1,1,7.51,11.38,6.80,11.87,6.00,9.00,3.00,32.40,AdaptiveConvectionAlgorithm,AdaptiveConvectionAlgorithm,10.80,0.00,0.00,0.00,6,0,0,Yes
 Zone Information, BEDROOM3.12,0.0,16.00,19.00,0.00,10.22,26.02,7.50,1,1,1,6.88,14.14,23.53,29.16,6.00,9.00,3.00,54.00,AdaptiveConvectionAlgorithm,AdaptiveConvectionAlgorithm,18.00,27.00,24.80,2.20,6,2,0,Yes
 Zone Information, STAIRCASE3.1,0.0,7.50,7.50,0.00,6.23,14.25,7.50,1,1,1,1.70,10.77,9.72,18.79,6.00,9.00,3.00,147.00,AdaptiveConvectionAlgorithm,AdaptiveConvectionAlgorithm,49.00,0.00,0.00,0.00,14,0,0,Yes
 Zone Information, BEDROOM3.3,0.0,11.00,0.00,0.00,12.02,6.32,7.50,1,1,1,9.15,17.65,4.01,8.63,6.00,9.00,3.00,45.00,AdaptiveConvectionAlgorithm,AdaptiveConvectionAlgorithm,15.00,15.00,13.64,1.36,7,1,0,Yes
 Zone Information, BEDROOM3.1,0.0,0.00,0.00,0.00,2.25,2.49,7.50,1,1,1,-1.09,7.41,0.00,4.98,6.00,9.00,3.00,54.00,AdaptiveConvectionAlgorithm,AdaptiveConvectionAlgorithm,18.00,27.00,23.85,3.15,6,2,0,Yes
 Zone Information, BEDROOM3.8,0.0,14.50,11.00,0.00,12.35,18.53,7.50,1,1,1,8.22,16.48,15.53,21.52,6.00,9.00,3.00,78.75,AdaptiveConvectionAlgorithm,AdaptiveConvectionAlgorithm,26.25,10.50,8.97,1.53,6,1,0,Yes
 Zone Information, BEDROOM3.2,0.0,6.00,0.00,0.00,7.37,4.50,7.50,1,1,1,4.49,12.99,2.19,6.80,6.00,9.00,3.00,45.00,AdaptiveConvectionAlgorithm,AdaptiveConvectionAlgorithm,15.00,15.00,13.64,1.36,7,1,0,Yes
 Zone Information, LIVINGROOM3.2,0.0,13.50,3.00,0.00,14.57,11.34,7.50,1,1,1,9.74,19.39,7.68,15.00,6.00,9.00,3.00,116.10,AdaptiveConvectionAlgorithm,AdaptiveConvectionAlgorithm,38.70,13.50,11.54,1.96,8,1,0,Yes
 Zone Information, BEDROOM3.7,0.0,0.00,11.00,0.00,-1.16,13.24,7.50,1,1,1,-5.29,2.97,10.24,16.24,6.00,9.00,3.00,78.75,AdaptiveConvectionAlgorithm,AdaptiveConvectionAlgorithm,26.25,10.50,8.41,2.09,6,1,0,Yes
! <Zone Internal Gains Nominal>,Zone Name, Floor Area {m2},# Occupants,Area per Occupant {m2/person},Occupant per Area {person/m2},Interior Lighting {W/m2},Electric Load {W/m2},Gas Load {W/m2},Other Load {W/m2},Hot Water Eq {W/m2},Steam Equipment {W/m2},Sum Loads per Area {W/m2},Outdoor Controlled Baseboard Heat
 Zone Internal Gains Nominal, KITCHEN1.1,10.80,0.3,35.630,2.807E-002,6.000,4.300,0.000,0.000,0.000,0.000,10.300,No
 Zone Internal Gains Nominal, BEDROOM1.4,18.00,0.5,35.630,2.807E-002,3.000,4.300,0.000,0.000,0.000,0.000,7.300,No
 Zone Internal Gains Nominal, KITCHEN1.2,10.80,0.3,35.630,2.807E-002,6.000,4.300,0.000,0.000,0.000,0.000,10.300,No
 Zone Internal Gains Nominal, LIVINGROOM1.2,38.70,1.1,35.630,2.807E-002,5.000,4.300,0.000,0.000,0.000,0.000,9.300,No
 Zone Internal Gains Nominal, BEDROOM1.7,26.25,0.7,35.630,2.807E-002,3.000,4.300,0.000,0.000,0.000,0.000,7.300,No
 Zone Internal Gains Nominal, LIVINGROOM1.3,38.70,1.1,35.630,2.807E-002,5.000,4.300,0.000,0.000,0.000,0.000,9.300,No
 Zone Internal Gains Nominal, BEDROOM1.9,18.00,0.5,35.630,2.807E-002,3.000,4.300,0.000,0.000,0.000,0.000,7.300,No
 Zone Internal Gains Nominal, BEDROOM1.10,15.00,0.4,35.630,2.807E-002,3.000,4.300,0.000,0.000,0.000,0.000,7.300,No
 Zone Internal Gains Nominal, BEDROOM1.11,15.00,0.4,35.630,2.807E-002,3.000,4.300,0.000,0.000,0.000,0.000,7.300,No
 Zone Internal Gains Nominal, BEDROOM1.12,18.00,0.5,35.630,2.807E-002,3.000,4.300,0.000,0.000,0.000,0.000,7.300,No
 Zone Internal Gains Nominal, STAIRCASE1.1,49.00,0.0,N/A,0.000,0.000,0.000,0.000,0.000,0.000,0.000,0.000,No
 Zone Internal Gains Nominal, KITCHEN1.3,10.80,0.3,35.630,2.807E-002,6.000,4.300,0.000,0.000,0.000,0.000,10.300,No
 Zone Internal Gains Nominal, KITCHEN1.4,10.80,0.3,35.630,2.807E-002,6.000,4.300,0.000,0.000,0.000,0.000,10.300,No
 Zone Internal Gains Nominal, LIVINGROOM1.4,38.70,1.1,35.630,2.807E-002,5.000,4.300,0.000,0.000,0.000,0.000,9.300,No
 Zone Internal Gains Nominal, BEDROOM1.6,26.25,0.7,35.630,2.807E-002,3.000,4.300,0.000,0.000,0.000,0.000,7.300,No
 Zone Internal Gains Nominal, BEDROOM1.8,26.25,0.7,35.630,2.807E-002,3.000,4.300,0.000,0.000,0.000,0.000,7.300,No
 Zone Internal Gains Nominal, BEDROOM1.3,15.00,0.4,35.630,2.807E-002,3.000,4.300,0.000,0.000,0.000,0.000,7.300,No
 Zone Internal Gains Nominal, BEDROOM1.2,15.00,0.4,35.630,2.807E-002,3.000,4.300,0.000,0.000,0.000,0.000,7.300,No
 Zone Internal Gains Nominal, BEDROOM1.1,18.00,0.5,35.630,2.807E-002,3.000,4.300,0.000,0.000,0.000,0.000,7.300,No
 Zone Internal Gains Nominal, LIVINGROOM1.1,38.70,1.1,35.630,2.807E-002,5.000,4.300,0.000,0.000,0.000,0.000,9.300,No
 Zone Internal Gains Nominal, BEDROOM1.5,26.25,0.7,35.630,2.807E-002,3.000,4.300,0.000,0.000,0.000,0.000,7.300,No
 Zone Internal Gains Nominal, LIVINGROOM2.4,38.70,1.1,35.630,2.807E-002,5.000,4.300,0.000,0.000,0.000,0.000,9.300,No
 Zone Internal Gains Nominal, BEDROOM2.5,26.25,0.7,35.630,2.807E-002,3.000,4.300,0.000,0.000,0.000,0.000,7.300,No
 Zone Internal Gains Nominal, LIVINGROOM2.1,38.70,1.1,35.630,2.807E-002,5.000,4.300,0.000,0.000,0.000,0.000,9.300,No
 Zone Internal Gains Nominal, BEDROOM2.11,15.00,0.4,35.630,2.807E-002,3.000,4.300,0.000,0.000,0.000,0.000,7.300,No
 Zone Internal Gains Nominal, BEDROOM2.10,15.00,0.4,35.630,2.807E-002,3.000,4.300,0.000,0.000,0.000,0.000,7.300,No
 Zone Internal Gains Nominal, BEDROOM2.9,18.00,0.5,35.630,2.807E-002,3.000,4.300,0.000,0.000,0.000,0.000,7.300,No
 Zone Internal Gains Nominal, LIVINGROOM2.3,38.70,1.1,35.630,2.807E-002,5.000,4.300,0.000,0.000,0.000,0.000,9.300,No
 Zone Internal Gains Nominal, BEDROOM2.7,26.25,0.7,35.630,2.807E-002,3.000,4.300,0.000,0.000,0.000,0.000,7.300,No
 Zone Internal Gains Nominal, LIVINGROOM2.2,38.70,1.1,35.630,2.807E-002,5.000,4.300,0.000,0.000,0.000,0.000,9.300,No
 Zone Internal Gains Nominal, BEDROOM2.2,15.00,0.4,35.630,2.807E-002,3.000,4.300,0.000,0.000,0.000,0.000,7.300,No
 Zone Internal Gains Nominal, BEDROOM2.8,26.25,0.7,35.630,2.807E-002,3.000,4.300,0.000,0.000,0.000,0.000,7.300,No
 Zone Internal Gains Nominal, BEDROOM2.3,15.00,0.4,35.630,2.807E-002,3.000,4.300,0.000,0.000,0.000,0.000,7.300,No
 Zone Internal Gains Nominal, BEDROOM2.1,18.00,0.5,35.630,2.807E-002,3.000,4.300,0.000,0.000,0.000,0.000,7.300,No
 Zone Internal Gains Nominal, BEDROOM2.4,18.00,0.5,35.630,2.807E-002,3.000,4.300,0.000,0.000,0.000,0.000,7.300,No
 Zone Internal Gains Nominal, BEDROOM2.6,26.25,0.7,35.630,2.807E-002,3.000,4.300,0.000,0.000,0.000,0.000,7.300,No
 Zone Internal Gains Nominal, KITCHEN2.1,10.80,0.3,35.630,2.807E-002,6.000,4.300,0.000,0.000,0.000,0.000,10.300,No
 Zone Internal Gains Nominal, KITCHEN2.4,10.80,0.3,35.630,2.807E-002,6.000,4.300,0.000,0.000,0.000,0.000,10.300,No
 Zone Internal Gains Nominal, KITCHEN2.3,10.80,0.3,35.630,2.807E-002,6.000,4.300,0.000,0.000,0.000,0.000,10.300,No
 Zone Internal Gains Nominal, STAIRCASE2.1,49.00,0.0,N/A,0.000,0.000,0.000,0.000,0.000,0.000,0.000,0.000,No
 Zone Internal Gains Nominal, BEDROOM2.12,18.00,0.5,35.630,2.807E-002,3.000,4.300,0.000,0.000,0.000,0.000,7.300,No
 Zone Internal Gains Nominal, KITCHEN2.2,10.80,0.3,35.630,2.807E-002,6.000,4.300,0.000,0.000,0.000,0.000,10.300,No
 Zone Internal Gains Nominal, LIVINGROOM3.4,38.70,1.1,35.630,2.807E-002,5.000,4.300,0.000,0.000,0.000,0.000,9.300,No
 Zone Internal Gains Nominal, BEDROOM3.5,26.25,0.7,35.630,2.807E-002,3.000,4.300,0.000,0.000,0.000,0.000,7.300,No
 Zone Internal Gains Nominal, LIVINGROOM3.1,38.70,1.1,35.630,2.807E-002,5.000,4.300,0.000,0.000,0.000,0.000,9.300,No
 Zone Internal Gains Nominal, BEDROOM3.11,15.00,0.4,35.630,2.807E-002,3.000,4.300,0.000,0.000,0.000,0.000,7.300,No
 Zone Internal Gains Nominal, BEDROOM3.10,15.00,0.4,35.630,2.807E-002,3.000,4.300,0.000,0.000,0.000,0.000,7.300,No
 Zone Internal Gains Nominal, BEDROOM3.9,18.00,0.5,35.630,2.807E-002,3.000,4.300,0.000,0.000,0.000,0.000,7.300,No
 Zone Internal Gains Nominal, LIVINGROOM3.3,38.70,1.1,35.630,2.807E-002,5.000,4.300,0.000,0.000,0.000,0.000,9.300,No
 Zone Internal Gains Nominal, KITCHEN3.4,10.80,0.3,35.630,2.807E-002,6.000,4.300,0.000,0.000,0.000,0.000,10.300,No
 Zone Internal Gains Nominal, KITCHEN3.1,10.80,0.3,35.630,2.807E-002,6.000,4.300,0.000,0.000,0.000,0.000,10.300,No
 Zone Internal Gains Nominal, BEDROOM3.4,18.00,0.5,35.630,2.807E-002,3.000,4.300,0.000,0.000,0.000,0.000,7.300,No
 Zone Internal Gains Nominal, BEDROOM3.6,26.25,0.7,35.630,2.807E-002,3.000,4.300,0.000,0.000,0.000,0.000,7.300,No
 Zone Internal Gains Nominal, KITCHEN3.3,10.80,0.3,35.630,2.807E-002,6.000,4.300,0.000,0.000,0.000,0.000,10.300,No
 Zone Internal Gains Nominal, KITCHEN3.2,10.80,0.3,35.630,2.807E-002,6.000,4.300,0.000,0.000,0.000,0.000,10.300,No
 Zone Internal Gains Nominal, BEDROOM3.12,18.00,0.5,35.630,2.807E-002,3.000,4.300,0.000,0.000,0.000,0.000,7.300,No
 Zone Internal Gains Nominal, STAIRCASE3.1,49.00,0.0,N/A,0.000,0.000,0.000,0.000,0.000,0.000,0.000,0.000,No
 Zone Internal Gains Nominal, BEDROOM3.3,15.00,0.4,35.630,2.807E-002,3.000,4.300,0.000,0.000,0.000,0.000,7.300,No
 Zone Internal Gains Nominal, BEDROOM3.1,18.00,0.5,35.630,2.807E-002,3.000,4.300,0.000,0.000,0.000,0.000,7.300,No
 Zone Internal Gains Nominal, BEDROOM3.8,26.25,0.7,35.630,2.807E-002,3.000,4.300,0.000,0.000,0.000,0.000,7.300,No
 Zone Internal Gains Nominal, BEDROOM3.2,15.00,0.4,35.630,2.807E-002,3.000,4.300,0.000,0.000,0.000,0.000,7.300,No
 Zone Internal Gains Nominal, LIVINGROOM3.2,38.70,1.1,35.630,2.807E-002,5.000,4.300,0.000,0.000,0.000,0.000,9.300,No
 Zone Internal Gains Nominal, BEDROOM3.7,26.25,0.7,35.630,2.807E-002,3.000,4.300,0.000,0.000,0.000,0.000,7.300,No
! <People Internal Gains Nominal>,Name,Schedule Name,Zone Name,Zone Floor Area {m2},# Zone Occupants,Number of People {},People/Floor Area {person/m2},Floor Area per person {m2/person},Fraction Radiant,Fraction Convected,Sensible Fraction Calculation,Activity level,ASHRAE 55 Warnings,Carbon Dioxide Generation Rate,Nominal Minimum Number of People,Nominal Maximum Number of People
 People Internal Gains Nominal, BEDROOM3.2,BEDROOM OCCUPANCY,BEDROOM3.2,15.00,0.4,0.4,2.807E-002,35.630,0.200,0.800,AutoCalculate,ACTIVITY_ZUOZI HUODONG,No,3.8200E-008,0,0
 People Internal Gains Nominal, KITCHEN1.1,CHUFANG OCCUPANCY,KITCHEN1.1,10.80,0.3,0.3,2.807E-002,35.630,0.200,0.800,AutoCalculate,ACTIVITY_ZUOZI HUODONG,No,3.8200E-008,0,0
 People Internal Gains Nominal, KITCHEN1.2,CHUFANG OCCUPANCY,KITCHEN1.2,10.80,0.3,0.3,2.807E-002,35.630,0.200,0.800,AutoCalculate,ACTIVITY_ZUOZI HUODONG,No,3.8200E-008,0,0
 People Internal Gains Nominal, KITCHEN1.3,CHUFANG OCCUPANCY,KITCHEN1.3,10.80,0.3,0.3,2.807E-002,35.630,0.200,0.800,AutoCalculate,ACTIVITY_ZUOZI HUODONG,No,3.8200E-008,0,0
 People Internal Gains Nominal, KITCHEN1.4,CHUFANG OCCUPANCY,KITCHEN1.4,10.80,0.3,0.3,2.807E-002,35.630,0.200,0.800,AutoCalculate,ACTIVITY_ZUOZI HUODONG,No,3.8200E-008,0,0
 People Internal Gains Nominal, LIVINGROOM1.1,KETING OCCUPANCY,LIVINGROOM1.1,38.70,1.1,1.1,2.807E-002,35.630,0.200,0.800,AutoCalculate,ACTIVITY_ZUOZI HUODONG,No,3.8200E-008,0,1
 People Internal Gains Nominal, LIVINGROOM1.2,KETING OCCUPANCY,LIVINGROOM1.2,38.70,1.1,1.1,2.807E-002,35.630,0.200,0.800,AutoCalculate,ACTIVITY_ZUOZI HUODONG,No,3.8200E-008,0,1
 People Internal Gains Nominal, LIVINGROOM1.3,KETING OCCUPANCY,LIVINGROOM1.3,38.70,1.1,1.1,2.807E-002,35.630,0.200,0.800,AutoCalculate,ACTIVITY_ZUOZI HUODONG,No,3.8200E-008,0,1
 People Internal Gains Nominal, LIVINGROOM1.4,KETING OCCUPANCY,LIVINGROOM1.4,38.70,1.1,1.1,2.807E-002,35.630,0.200,0.800,AutoCalculate,ACTIVITY_ZUOZI HUODONG,No,3.8200E-008,0,1
 People Internal Gains Nominal, BEDROOM1.1,BEDROOM OCCUPANCY,BEDROOM1.1,18.00,0.5,0.5,2.807E-002,35.630,0.200,0.800,AutoCalculate,ACTIVITY_ZUOZI HUODONG,No,3.8200E-008,0,1
 People Internal Gains Nominal, BEDROOM1.2,BEDROOM OCCUPANCY,BEDROOM1.2,15.00,0.4,0.4,2.807E-002,35.630,0.200,0.800,AutoCalculate,ACTIVITY_ZUOZI HUODONG,No,3.8200E-008,0,0
 People Internal Gains Nominal, BEDROOM1.3,BEDROOM OCCUPANCY,BEDROOM1.3,15.00,0.4,0.4,2.807E-002,35.630,0.200,0.800,AutoCalculate,ACTIVITY_ZUOZI HUODONG,No,3.8200E-008,0,0
 People Internal Gains Nominal, BEDROOM1.4,BEDROOM OCCUPANCY,BEDROOM1.4,18.00,0.5,0.5,2.807E-002,35.630,0.200,0.800,AutoCalculate,ACTIVITY_ZUOZI HUODONG,No,3.8200E-008,0,1
 People Internal Gains Nominal, BEDROOM1.5,BEDROOM OCCUPANCY,BEDROOM1.5,26.25,0.7,0.7,2.807E-002,35.630,0.200,0.800,AutoCalculate,ACTIVITY_ZUOZI HUODONG,No,3.8200E-008,0,1
 People Internal Gains Nominal, BEDROOM1.6,BEDROOM OCCUPANCY,BEDROOM1.6,26.25,0.7,0.7,2.807E-002,35.630,0.200,0.800,AutoCalculate,ACTIVITY_ZUOZI HUODONG,No,3.8200E-008,0,1
 People Internal Gains Nominal, BEDROOM1.7,BEDROOM OCCUPANCY,BEDROOM1.7,26.25,0.7,0.7,2.807E-002,35.630,0.200,0.800,AutoCalculate,ACTIVITY_ZUOZI HUODONG,No,3.8200E-008,0,1
 People Internal Gains Nominal, BEDROOM1.8,BEDROOM OCCUPANCY,BEDROOM1.8,26.25,0.7,0.7,2.807E-002,35.630,0.200,0.800,AutoCalculate,ACTIVITY_ZUOZI HUODONG,No,3.8200E-008,0,1
 People Internal Gains Nominal, BEDROOM1.9,BEDROOM OCCUPANCY,BEDROOM1.9,18.00,0.5,0.5,2.807E-002,35.630,0.200,0.800,AutoCalculate,ACTIVITY_ZUOZI HUODONG,No,3.8200E-008,0,1
 People Internal Gains Nominal, BEDROOM1.10,BEDROOM OCCUPANCY,BEDROOM1.10,15.00,0.4,0.4,2.807E-002,35.630,0.200,0.800,AutoCalculate,ACTIVITY_ZUOZI HUODONG,No,3.8200E-008,0,0
 People Internal Gains Nominal, BEDROOM1.11,BEDROOM OCCUPANCY,BEDROOM1.11,15.00,0.4,0.4,2.807E-002,35.630,0.200,0.800,AutoCalculate,ACTIVITY_ZUOZI HUODONG,No,3.8200E-008,0,0
 People Internal Gains Nominal, BEDROOM1.12,BEDROOM OCCUPANCY,BEDROOM1.12,18.00,0.5,0.5,2.807E-002,35.630,0.200,0.800,AutoCalculate,ACTIVITY_ZUOZI HUODONG,No,3.8200E-008,0,1
 People Internal Gains Nominal, KITCHEN2.1,CHUFANG OCCUPANCY,KITCHEN2.1,10.80,0.3,0.3,2.807E-002,35.630,0.200,0.800,AutoCalculate,ACTIVITY_ZUOZI HUODONG,No,3.8200E-008,0,0
 People Internal Gains Nominal, KITCHEN2.2,CHUFANG OCCUPANCY,KITCHEN2.2,10.80,0.3,0.3,2.807E-002,35.630,0.200,0.800,AutoCalculate,ACTIVITY_ZUOZI HUODONG,No,3.8200E-008,0,0
 People Internal Gains Nominal, KITCHEN2.3,CHUFANG OCCUPANCY,KITCHEN2.3,10.80,0.3,0.3,2.807E-002,35.630,0.200,0.800,AutoCalculate,ACTIVITY_ZUOZI HUODONG,No,3.8200E-008,0,0
 People Internal Gains Nominal, KITCHEN2.4,CHUFANG OCCUPANCY,KITCHEN2.4,10.80,0.3,0.3,2.807E-002,35.630,0.200,0.800,AutoCalculate,ACTIVITY_ZUOZI HUODONG,No,3.8200E-008,0,0
 People Internal Gains Nominal, LIVINGROOM2.1,KETING OCCUPANCY,LIVINGROOM2.1,38.70,1.1,1.1,2.807E-002,35.630,0.200,0.800,AutoCalculate,ACTIVITY_ZUOZI HUODONG,No,3.8200E-008,0,1
 People Internal Gains Nominal, LIVINGROOM2.2,KETING OCCUPANCY,LIVINGROOM2.2,38.70,1.1,1.1,2.807E-002,35.630,0.200,0.800,AutoCalculate,ACTIVITY_ZUOZI HUODONG,No,3.8200E-008,0,1
 People Internal Gains Nominal, LIVINGROOM2.3,KETING OCCUPANCY,LIVINGROOM2.3,38.70,1.1,1.1,2.807E-002,35.630,0.200,0.800,AutoCalculate,ACTIVITY_ZUOZI HUODONG,No,3.8200E-008,0,1
 People Internal Gains Nominal, LIVINGROOM2.4,KETING OCCUPANCY,LIVINGROOM2.4,38.70,1.1,1.1,2.807E-002,35.630,0.200,0.800,AutoCalculate,ACTIVITY_ZUOZI HUODONG,No,3.8200E-008,0,1
 People Internal Gains Nominal, BEDROOM2.1,BEDROOM OCCUPANCY,BEDROOM2.1,18.00,0.5,0.5,2.807E-002,35.630,0.200,0.800,AutoCalculate,ACTIVITY_ZUOZI HUODONG,No,3.8200E-008,0,1
 People Internal Gains Nominal, BEDROOM2.3,BEDROOM OCCUPANCY,BEDROOM2.3,15.00,0.4,0.4,2.807E-002,35.630,0.200,0.800,AutoCalculate,ACTIVITY_ZUOZI HUODONG,No,3.8200E-008,0,0
 People Internal Gains Nominal, BEDROOM2.4,BEDROOM OCCUPANCY,BEDROOM2.4,18.00,0.5,0.5,2.807E-002,35.630,0.200,0.800,AutoCalculate,ACTIVITY_ZUOZI HUODONG,No,3.8200E-008,0,1
 People Internal Gains Nominal, BEDROOM2.5,BEDROOM OCCUPANCY,BEDROOM2.5,26.25,0.7,0.7,2.807E-002,35.630,0.200,0.800,AutoCalculate,ACTIVITY_ZUOZI HUODONG,No,3.8200E-008,0,1
 People Internal Gains Nominal, BEDROOM2.6,BEDROOM OCCUPANCY,BEDROOM2.6,26.25,0.7,0.7,2.807E-002,35.630,0.200,0.800,AutoCalculate,ACTIVITY_ZUOZI HUODONG,No,3.8200E-008,0,1
 People Internal Gains Nominal, BEDROOM2.7,BEDROOM OCCUPANCY,BEDROOM2.7,26.25,0.7,0.7,2.807E-002,35.630,0.200,0.800,AutoCalculate,ACTIVITY_ZUOZI HUODONG,No,3.8200E-008,0,1
 People Internal Gains Nominal, BEDROOM2.8,BEDROOM OCCUPANCY,BEDROOM2.8,26.25,0.7,0.7,2.807E-002,35.630,0.200,0.800,AutoCalculate,ACTIVITY_ZUOZI HUODONG,No,3.8200E-008,0,1
 People Internal Gains Nominal, BEDROOM2.9,BEDROOM OCCUPANCY,BEDROOM2.9,18.00,0.5,0.5,2.807E-002,35.630,0.200,0.800,AutoCalculate,ACTIVITY_ZUOZI HUODONG,No,3.8200E-008,0,1
 People Internal Gains Nominal, BEDROOM2.10,BEDROOM OCCUPANCY,BEDROOM2.10,15.00,0.4,0.4,2.807E-002,35.630,0.200,0.800,AutoCalculate,ACTIVITY_ZUOZI HUODONG,No,3.8200E-008,0,0
 People Internal Gains Nominal, BEDROOM2.11,BEDROOM OCCUPANCY,BEDROOM2.11,15.00,0.4,0.4,2.807E-002,35.630,0.200,0.800,AutoCalculate,ACTIVITY_ZUOZI HUODONG,No,3.8200E-008,0,0
 People Internal Gains Nominal, BEDROOM2.12,BEDROOM OCCUPANCY,BEDROOM2.12,18.00,0.5,0.5,2.807E-002,35.630,0.200,0.800,AutoCalculate,ACTIVITY_ZUOZI HUODONG,No,3.8200E-008,0,1
 People Internal Gains Nominal, KITCHEN3.1,CHUFANG OCCUPANCY,KITCHEN3.1,10.80,0.3,0.3,2.807E-002,35.630,0.200,0.800,AutoCalculate,ACTIVITY_ZUOZI HUODONG,No,3.8200E-008,0,0
 People Internal Gains Nominal, KITCHEN3.2,CHUFANG OCCUPANCY,KITCHEN3.2,10.80,0.3,0.3,2.807E-002,35.630,0.200,0.800,AutoCalculate,ACTIVITY_ZUOZI HUODONG,No,3.8200E-008,0,0
 People Internal Gains Nominal, KITCHEN3.3,CHUFANG OCCUPANCY,KITCHEN3.3,10.80,0.3,0.3,2.807E-002,35.630,0.200,0.800,AutoCalculate,ACTIVITY_ZUOZI HUODONG,No,3.8200E-008,0,0
 People Internal Gains Nominal, KITCHEN3.4,CHUFANG OCCUPANCY,KITCHEN3.4,10.80,0.3,0.3,2.807E-002,35.630,0.200,0.800,AutoCalculate,ACTIVITY_ZUOZI HUODONG,No,3.8200E-008,0,0
 People Internal Gains Nominal, LIVINGROOM3.1,KETING OCCUPANCY,LIVINGROOM3.1,38.70,1.1,1.1,2.807E-002,35.630,0.200,0.800,AutoCalculate,ACTIVITY_ZUOZI HUODONG,No,3.8200E-008,0,1
 People Internal Gains Nominal, LIVINGROOM3.2,KETING OCCUPANCY,LIVINGROOM3.2,38.70,1.1,1.1,2.807E-002,35.630,0.200,0.800,AutoCalculate,ACTIVITY_ZUOZI HUODONG,No,3.8200E-008,0,1
 People Internal Gains Nominal, LIVINGROOM3.3,KETING OCCUPANCY,LIVINGROOM3.3,38.70,1.1,1.1,2.807E-002,35.630,0.200,0.800,AutoCalculate,ACTIVITY_ZUOZI HUODONG,No,3.8200E-008,0,1
 People Internal Gains Nominal, LIVINGROOM3.4,KETING OCCUPANCY,LIVINGROOM3.4,38.70,1.1,1.1,2.807E-002,35.630,0.200,0.800,AutoCalculate,ACTIVITY_ZUOZI HUODONG,No,3.8200E-008,0,1
 People Internal Gains Nominal, BEDROOM3.1,BEDROOM OCCUPANCY,BEDROOM3.1,18.00,0.5,0.5,2.807E-002,35.630,0.200,0.800,AutoCalculate,ACTIVITY_ZUOZI HUODONG,No,3.8200E-008,0,1
 People Internal Gains Nominal, BEDROOM3.3,BEDROOM OCCUPANCY,BEDROOM3.3,15.00,0.4,0.4,2.807E-002,35.630,0.200,0.800,AutoCalculate,ACTIVITY_ZUOZI HUODONG,No,3.8200E-008,0,0
 People Internal Gains Nominal, BEDROOM3.4,BEDROOM OCCUPANCY,BEDROOM3.4,18.00,0.5,0.5,2.807E-002,35.630,0.200,0.800,AutoCalculate,ACTIVITY_ZUOZI HUODONG,No,3.8200E-008,0,1
 People Internal Gains Nominal, BEDROOM3.5,BEDROOM OCCUPANCY,BEDROOM3.5,26.25,0.7,0.7,2.807E-002,35.630,0.200,0.800,AutoCalculate,ACTIVITY_ZUOZI HUODONG,No,3.8200E-008,0,1
 People Internal Gains Nominal, BEDROOM3.6,BEDROOM OCCUPANCY,BEDROOM3.6,26.25,0.7,0.7,2.807E-002,35.630,0.200,0.800,AutoCalculate,ACTIVITY_ZUOZI HUODONG,No,3.8200E-008,0,1
 People Internal Gains Nominal, BEDROOM3.7,BEDROOM OCCUPANCY,BEDROOM3.7,26.25,0.7,0.7,2.807E-002,35.630,0.200,0.800,AutoCalculate,ACTIVITY_ZUOZI HUODONG,No,3.8200E-008,0,1
 People Internal Gains Nominal, BEDROOM3.8,BEDROOM OCCUPANCY,BEDROOM3.8,26.25,0.7,0.7,2.807E-002,35.630,0.200,0.800,AutoCalculate,ACTIVITY_ZUOZI HUODONG,No,3.8200E-008,0,1
 People Internal Gains Nominal, BEDROOM3.9,BEDROOM OCCUPANCY,BEDROOM3.9,18.00,0.5,0.5,2.807E-002,35.630,0.200,0.800,AutoCalculate,ACTIVITY_ZUOZI HUODONG,No,3.8200E-008,0,1
 People Internal Gains Nominal, BEDROOM3.10,BEDROOM OCCUPANCY,BEDROOM3.10,15.00,0.4,0.4,2.807E-002,35.630,0.200,0.800,AutoCalculate,ACTIVITY_ZUOZI HUODONG,No,3.8200E-008,0,0
 People Internal Gains Nominal, BEDROOM3.11,BEDROOM OCCUPANCY,BEDROOM3.11,15.00,0.4,0.4,2.807E-002,35.630,0.200,0.800,AutoCalculate,ACTIVITY_ZUOZI HUODONG,No,3.8200E-008,0,0
 People Internal Gains Nominal, BEDROOM3.12,BEDROOM OCCUPANCY,BEDROOM3.12,18.00,0.5,0.5,2.807E-002,35.630,0.200,0.800,AutoCalculate,ACTIVITY_ZUOZI HUODONG,No,3.8200E-008,0,1
 People Internal Gains Nominal, BEDROOM2.2,BEDROOM OCCUPANCY,BEDROOM2.2,15.00,0.4,0.4,2.807E-002,35.630,0.200,0.800,AutoCalculate,ACTIVITY_ZUOZI HUODONG,No,3.8200E-008,0,0,Zone Averaged,WORK EFFICIENCY,Clothing Insulation Schedule,N/A,CLOTHING INSULATION SCHEDULE,AIR VELOCITY SCHEDULE,Yes,No,No
! <Lights Internal Gains Nominal>,Name,Schedule Name,Zone Name,Zone Floor Area {m2},# Zone Occupants,Lighting Level {W},Lights/Floor Area {W/m2},Lights per person {W/person},Fraction Return Air,Fraction Radiant,Fraction Short Wave,Fraction Convected,Fraction Replaceable,End-Use Category,Nominal Minimum Lighting Level {W},Nominal Maximum Lighting Level {W}
 Lights Internal Gains Nominal, KITCHEN1.1,LIGHTING CHUFANG,KITCHEN1.1,10.80,0.3,64.800,6.000,213.780,0.000,0.720,0.180,0.100,1.000,General,0.000,51.840
 Lights Internal Gains Nominal, KITCHEN1.2,LIGHTING CHUFANG,KITCHEN1.2,10.80,0.3,64.800,6.000,213.780,0.000,0.720,0.180,0.100,1.000,General,0.000,51.840
 Lights Internal Gains Nominal, KITCHEN1.3,LIGHTING CHUFANG,KITCHEN1.3,10.80,0.3,64.800,6.000,213.780,0.000,0.720,0.180,0.100,1.000,General,0.000,51.840
 Lights Internal Gains Nominal, KITCHEN1.4,LIGHTING CHUFANG,KITCHEN1.4,10.80,0.3,64.800,6.000,213.780,0.000,0.720,0.180,0.100,1.000,General,0.000,51.840
 Lights Internal Gains Nominal, LIVINGROOM1.1,LIGHT-KETING,LIVINGROOM1.1,38.70,1.1,193.500,5.000,178.150,0.000,0.720,0.180,0.100,1.000,General,0.000,193.500
 Lights Internal Gains Nominal, LIVINGROOM1.2,LIGHT-KETING,LIVINGROOM1.2,38.70,1.1,193.500,5.000,178.150,0.000,0.720,0.180,0.100,1.000,General,0.000,193.500
 Lights Internal Gains Nominal, LIVINGROOM1.3,LIGHT-KETING,LIVINGROOM1.3,38.70,1.1,193.500,5.000,178.150,0.000,0.720,0.180,0.100,1.000,General,0.000,193.500
 Lights Internal Gains Nominal, LIVINGROOM1.4,LIGHT-KETING,LIVINGROOM1.4,38.70,1.1,193.500,5.000,178.150,0.000,0.720,0.180,0.100,1.000,General,0.000,193.500
 Lights Internal Gains Nominal, BEDROOM1.1,LIGHT-BEDROOM,BEDROOM1.1,18.00,0.5,54.000,3.000,106.890,0.000,0.720,0.180,0.100,1.000,General,0.000,54.000
 Lights Internal Gains Nominal, BEDROOM1.2,LIGHT-BEDROOM,BEDROOM1.2,15.00,0.4,45.000,3.000,106.890,0.000,0.720,0.180,0.100,1.000,General,0.000,45.000
 Lights Internal Gains Nominal, BEDROOM1.3,LIGHT-BEDROOM,BEDROOM1.3,15.00,0.4,45.000,3.000,106.890,0.000,0.720,0.180,0.100,1.000,General,0.000,45.000
 Lights Internal Gains Nominal, BEDROOM1.4,LIGHT-BEDROOM,BEDROOM1.4,18.00,0.5,54.000,3.000,106.890,0.000,0.720,0.180,0.100,1.000,General,0.000,54.000
 Lights Internal Gains Nominal, BEDROOM1.5,LIGHT-BEDROOM,BEDROOM1.5,26.25,0.7,78.750,3.000,106.890,0.000,0.720,0.180,0.100,1.000,General,0.000,78.750
 Lights Internal Gains Nominal, BEDROOM1.6,LIGHT-BEDROOM,BEDROOM1.6,26.25,0.7,78.750,3.000,106.890,0.000,0.720,0.180,0.100,1.000,General,0.000,78.750
 Lights Internal Gains Nominal, BEDROOM1.7,LIGHT-BEDROOM,BEDROOM1.7,26.25,0.7,78.750,3.000,106.890,0.000,0.720,0.180,0.100,1.000,General,0.000,78.750
 Lights Internal Gains Nominal, BEDROOM1.8,LIGHT-BEDROOM,BEDROOM1.8,26.25,0.7,78.750,3.000,106.890,0.000,0.720,0.180,0.100,1.000,General,0.000,78.750
 Lights Internal Gains Nominal, BEDROOM1.9,LIGHT-BEDROOM,BEDROOM1.9,18.00,0.5,54.000,3.000,106.890,0.000,0.720,0.180,0.100,1.000,General,0.000,54.000
 Lights Internal Gains Nominal, BEDROOM1.10,LIGHT-BEDROOM,BEDROOM1.10,15.00,0.4,45.000,3.000,106.890,0.000,0.720,0.180,0.100,1.000,General,0.000,45.000
 Lights Internal Gains Nominal, BEDROOM1.11,LIGHT-BEDROOM,BEDROOM1.11,15.00,0.4,45.000,3.000,106.890,0.000,0.720,0.180,0.100,1.000,General,0.000,45.000
 Lights Internal Gains Nominal, BEDROOM1.12,LIGHT-BEDROOM,BEDROOM1.12,18.00,0.5,54.000,3.000,106.890,0.000,0.720,0.180,0.100,1.000,General,0.000,54.000
 Lights Internal Gains Nominal, KITCHEN2.1,LIGHTING CHUFANG,KITCHEN2.1,10.80,0.3,64.800,6.000,213.780,0.000,0.720,0.180,0.100,1.000,General,0.000,51.840
 Lights Internal Gains Nominal, KITCHEN2.2,LIGHTING CHUFANG,KITCHEN2.2,10.80,0.3,64.800,6.000,213.780,0.000,0.720,0.180,0.100,1.000,General,0.000,51.840
 Lights Internal Gains Nominal, KITCHEN2.3,LIGHTING CHUFANG,KITCHEN2.3,10.80,0.3,64.800,6.000,213.780,0.000,0.720,0.180,0.100,1.000,General,0.000,51.840
 Lights Internal Gains Nominal, KITCHEN2.4,LIGHTING CHUFANG,KITCHEN2.4,10.80,0.3,64.800,6.000,213.780,0.000,0.720,0.180,0.100,1.000,General,0.000,51.840
 Lights Internal Gains Nominal, LIVINGROOM2.1,LIGHT-KETING,LIVINGROOM2.1,38.70,1.1,193.500,5.000,178.150,0.000,0.720,0.180,0.100,1.000,General,0.000,193.500
 Lights Internal Gains Nominal, LIVINGROOM2.2,LIGHT-KETING,LIVINGROOM2.2,38.70,1.1,193.500,5.000,178.150,0.000,0.720,0.180,0.100,1.000,General,0.000,193.500
 Lights Internal Gains Nominal, LIVINGROOM2.3,LIGHT-KETING,LIVINGROOM2.3,38.70,1.1,193.500,5.000,178.150,0.000,0.720,0.180,0.100,1.000,General,0.000,193.500
 Lights Internal Gains Nominal, LIVINGROOM2.4,LIGHT-KETING,LIVINGROOM2.4,38.70,1.1,193.500,5.000,178.150,0.000,0.720,0.180,0.100,1.000,General,0.000,193.500
 Lights Internal Gains Nominal, BEDROOM2.1,LIGHT-BEDROOM,BEDROOM2.1,18.00,0.5,54.000,3.000,106.890,0.000,0.720,0.180,0.100,1.000,General,0.000,54.000
 Lights Internal Gains Nominal, BEDROOM2.2,LIGHT-BEDROOM,BEDROOM2.2,15.00,0.4,45.000,3.000,106.890,0.000,0.720,0.180,0.100,1.000,General,0.000,45.000
 Lights Internal Gains Nominal, BEDROOM2.3,LIGHT-BEDROOM,BEDROOM2.3,15.00,0.4,45.000,3.000,106.890,0.000,0.720,0.180,0.100,1.000,General,0.000,45.000
 Lights Internal Gains Nominal, BEDROOM2.4,LIGHT-BEDROOM,BEDROOM2.4,18.00,0.5,54.000,3.000,106.890,0.000,0.720,0.180,0.100,1.000,General,0.000,54.000
 Lights Internal Gains Nominal, BEDROOM2.5,LIGHT-BEDROOM,BEDROOM2.5,26.25,0.7,78.750,3.000,106.890,0.000,0.720,0.180,0.100,1.000,General,0.000,78.750
 Lights Internal Gains Nominal, BEDROOM2.6,LIGHT-BEDROOM,BEDROOM2.6,26.25,0.7,78.750,3.000,106.890,0.000,0.720,0.180,0.100,1.000,General,0.000,78.750
 Lights Internal Gains Nominal, BEDROOM2.7,LIGHT-BEDROOM,BEDROOM2.7,26.25,0.7,78.750,3.000,106.890,0.000,0.720,0.180,0.100,1.000,General,0.000,78.750
 Lights Internal Gains Nominal, BEDROOM2.8,LIGHT-BEDROOM,BEDROOM2.8,26.25,0.7,78.750,3.000,106.890,0.000,0.720,0.180,0.100,1.000,General,0.000,78.750
 Lights Internal Gains Nominal, BEDROOM2.9,LIGHT-BEDROOM,BEDROOM2.9,18.00,0.5,54.000,3.000,106.890,0.000,0.720,0.180,0.100,1.000,General,0.000,54.000
 Lights Internal Gains Nominal, BEDROOM2.10,LIGHT-BEDROOM,BEDROOM2.10,15.00,0.4,45.000,3.000,106.890,0.000,0.720,0.180,0.100,1.000,General,0.000,45.000
 Lights Internal Gains Nominal, BEDROOM2.11,LIGHT-BEDROOM,BEDROOM2.11,15.00,0.4,45.000,3.000,106.890,0.000,0.720,0.180,0.100,1.000,General,0.000,45.000
 Lights Internal Gains Nominal, BEDROOM2.12,LIGHT-BEDROOM,BEDROOM2.12,18.00,0.5,54.000,3.000,106.890,0.000,0.720,0.180,0.100,1.000,General,0.000,54.000
 Lights Internal Gains Nominal, KITCHEN3.1,LIGHTING CHUFANG,KITCHEN3.1,10.80,0.3,64.800,6.000,213.780,0.000,0.720,0.180,0.100,1.000,General,0.000,51.840
 Lights Internal Gains Nominal, KITCHEN3.2,LIGHTING CHUFANG,KITCHEN3.2,10.80,0.3,64.800,6.000,213.780,0.000,0.720,0.180,0.100,1.000,General,0.000,51.840
 Lights Internal Gains Nominal, KITCHEN3.3,LIGHTING CHUFANG,KITCHEN3.3,10.80,0.3,64.800,6.000,213.780,0.000,0.720,0.180,0.100,1.000,General,0.000,51.840
 Lights Internal Gains Nominal, KITCHEN3.4,LIGHTING CHUFANG,KITCHEN3.4,10.80,0.3,64.800,6.000,213.780,0.000,0.720,0.180,0.100,1.000,General,0.000,51.840
 Lights Internal Gains Nominal, LIVINGROOM3.1,LIGHT-KETING,LIVINGROOM3.1,38.70,1.1,193.500,5.000,178.150,0.000,0.720,0.180,0.100,1.000,General,0.000,193.500
 Lights Internal Gains Nominal, LIVINGROOM3.2,LIGHT-KETING,LIVINGROOM3.2,38.70,1.1,193.500,5.000,178.150,0.000,0.720,0.180,0.100,1.000,General,0.000,193.500
 Lights Internal Gains Nominal, LIVINGROOM3.3,LIGHT-KETING,LIVINGROOM3.3,38.70,1.1,193.500,5.000,178.150,0.000,0.720,0.180,0.100,1.000,General,0.000,193.500
 Lights Internal Gains Nominal, LIVINGROOM3.4,LIGHT-KETING,LIVINGROOM3.4,38.70,1.1,193.500,5.000,178.150,0.000,0.720,0.180,0.100,1.000,General,0.000,193.500
 Lights Internal Gains Nominal, BEDROOM3.1,LIGHT-BEDROOM,BEDROOM3.1,18.00,0.5,54.000,3.000,106.890,0.000,0.720,0.180,0.100,1.000,General,0.000,54.000
 Lights Internal Gains Nominal, BEDROOM3.2,LIGHT-BEDROOM,BEDROOM3.2,15.00,0.4,45.000,3.000,106.890,0.000,0.720,0.180,0.100,1.000,General,0.000,45.000
 Lights Internal Gains Nominal, BEDROOM3.3,LIGHT-BEDROOM,BEDROOM3.3,15.00,0.4,45.000,3.000,106.890,0.000,0.720,0.180,0.100,1.000,General,0.000,45.000
 Lights Internal Gains Nominal, BEDROOM3.4,LIGHT-BEDROOM,BEDROOM3.4,18.00,0.5,54.000,3.000,106.890,0.000,0.720,0.180,0.100,1.000,General,0.000,54.000
 Lights Internal Gains Nominal, BEDROOM3.5,LIGHT-BEDROOM,BEDROOM3.5,26.25,0.7,78.750,3.000,106.890,0.000,0.720,0.180,0.100,1.000,General,0.000,78.750
 Lights Internal Gains Nominal, BEDROOM3.6,LIGHT-BEDROOM,BEDROOM3.6,26.25,0.7,78.750,3.000,106.890,0.000,0.720,0.180,0.100,1.000,General,0.000,78.750
 Lights Internal Gains Nominal, BEDROOM3.7,LIGHT-BEDROOM,BEDROOM3.7,26.25,0.7,78.750,3.000,106.890,0.000,0.720,0.180,0.100,1.000,General,0.000,78.750
 Lights Internal Gains Nominal, BEDROOM3.8,LIGHT-BEDROOM,BEDROOM3.8,26.25,0.7,78.750,3.000,106.890,0.000,0.720,0.180,0.100,1.000,General,0.000,78.750
 Lights Internal Gains Nominal, BEDROOM3.9,LIGHT-BEDROOM,BEDROOM3.9,18.00,0.5,54.000,3.000,106.890,0.000,0.720,0.180,0.100,1.000,General,0.000,54.000
 Lights Internal Gains Nominal, BEDROOM3.10,LIGHT-BEDROOM,BEDROOM3.10,15.00,0.4,45.000,3.000,106.890,0.000,0.720,0.180,0.100,1.000,General,0.000,45.000
 Lights Internal Gains Nominal, BEDROOM3.11,LIGHT-BEDROOM,BEDROOM3.11,15.00,0.4,45.000,3.000,106.890,0.000,0.720,0.180,0.100,1.000,General,0.000,45.000
 Lights Internal Gains Nominal, BEDROOM3.12,LIGHT-BEDROOM,BEDROOM3.12,18.00,0.5,54.000,3.000,106.890,0.000,0.720,0.180,0.100,1.000,General,0.000,54.000
! <ElectricEquipment Internal Gains Nominal>,Name,Schedule Name,Zone Name,Zone Floor Area {m2},# Zone Occupants,Equipment Level {W},Equipment/Floor Area {W/m2},Equipment per person {W/person},Fraction Latent,Fraction Radiant,Fraction Lost,Fraction Convected,End-Use SubCategory,Nominal Minimum Equipment Level {W},Nominal Maximum Equipment Level {W}
 ElectricEquipment Internal Gains Nominal, KITCHEN1.1,EQUIPMENT CHUFANG,KITCHEN1.1,10.80,0.3,46.440,4.300,153.209,0.000,0.250,0.000,0.750,General,0.000,46.440
 ElectricEquipment Internal Gains Nominal, KITCHEN1.2,EQUIPMENT CHUFANG,KITCHEN1.2,10.80,0.3,46.440,4.300,153.209,0.000,0.250,0.000,0.750,General,0.000,46.440
 ElectricEquipment Internal Gains Nominal, KITCHEN1.3,EQUIPMENT CHUFANG,KITCHEN1.3,10.80,0.3,46.440,4.300,153.209,0.000,0.250,0.000,0.750,General,0.000,46.440
 ElectricEquipment Internal Gains Nominal, KITCHEN1.4,EQUIPMENT CHUFANG,KITCHEN1.4,10.80,0.3,46.440,4.300,153.209,0.000,0.250,0.000,0.750,General,0.000,46.440
 ElectricEquipment Internal Gains Nominal, LIVINGROOM1.1,EQUIPMENT-KETING,LIVINGROOM1.1,38.70,1.1,166.410,4.300,153.209,0.000,0.250,0.000,0.750,General,37.609,166.410
 ElectricEquipment Internal Gains Nominal, LIVINGROOM1.2,EQUIPMENT-KETING,LIVINGROOM1.2,38.70,1.1,166.410,4.300,153.209,0.000,0.250,0.000,0.750,General,37.609,166.410
 ElectricEquipment Internal Gains Nominal, LIVINGROOM1.3,EQUIPMENT-KETING,LIVINGROOM1.3,38.70,1.1,166.410,4.300,153.209,0.000,0.250,0.000,0.750,General,37.609,166.410
 ElectricEquipment Internal Gains Nominal, LIVINGROOM1.4,EQUIPMENT-KETING,LIVINGROOM1.4,38.70,1.1,166.410,4.300,153.209,0.000,0.250,0.000,0.750,General,37.609,166.410
 ElectricEquipment Internal Gains Nominal, BEDROOM1.1,EQUIPMENT-BEDROOM,BEDROOM1.1,18.00,0.5,77.400,4.300,153.209,0.000,0.250,0.000,0.750,General,0.000,77.400
 ElectricEquipment Internal Gains Nominal, BEDROOM1.2,EQUIPMENT-BEDROOM,BEDROOM1.2,15.00,0.4,64.500,4.300,153.209,0.000,0.250,0.000,0.750,General,0.000,64.500
 ElectricEquipment Internal Gains Nominal, BEDROOM1.3,EQUIPMENT-BEDROOM,BEDROOM1.3,15.00,0.4,64.500,4.300,153.209,0.000,0.250,0.000,0.750,General,0.000,64.500
 ElectricEquipment Internal Gains Nominal, BEDROOM1.4,EQUIPMENT-BEDROOM,BEDROOM1.4,18.00,0.5,77.400,4.300,153.209,0.000,0.250,0.000,0.750,General,0.000,77.400
 ElectricEquipment Internal Gains Nominal, BEDROOM1.5,EQUIPMENT-BEDROOM,BEDROOM1.5,26.25,0.7,112.875,4.300,153.209,0.000,0.250,0.000,0.750,General,0.000,112.875
 ElectricEquipment Internal Gains Nominal, BEDROOM1.6,EQUIPMENT-BEDROOM,BEDROOM1.6,26.25,0.7,112.875,4.300,153.209,0.000,0.250,0.000,0.750,General,0.000,112.875
 ElectricEquipment Internal Gains Nominal, BEDROOM1.7,EQUIPMENT-BEDROOM,BEDROOM1.7,26.25,0.7,112.875,4.300,153.209,0.000,0.250,0.000,0.750,General,0.000,112.875
 ElectricEquipment Internal Gains Nominal, BEDROOM1.8,EQUIPMENT-BEDROOM,BEDROOM1.8,26.25,0.7,112.875,4.300,153.209,0.000,0.250,0.000,0.750,General,0.000,112.875
 ElectricEquipment Internal Gains Nominal, BEDROOM1.9,EQUIPMENT-BEDROOM,BEDROOM1.9,18.00,0.5,77.400,4.300,153.209,0.000,0.250,0.000,0.750,General,0.000,77.400
 ElectricEquipment Internal Gains Nominal, BEDROOM1.10,EQUIPMENT-BEDROOM,BEDROOM1.10,15.00,0.4,64.500,4.300,153.209,0.000,0.250,0.000,0.750,General,0.000,64.500
 ElectricEquipment Internal Gains Nominal, BEDROOM1.11,EQUIPMENT-BEDROOM,BEDROOM1.11,15.00,0.4,64.500,4.300,153.209,0.000,0.250,0.000,0.750,General,0.000,64.500
 ElectricEquipment Internal Gains Nominal, BEDROOM1.12,EQUIPMENT-BEDROOM,BEDROOM1.12,18.00,0.5,77.400,4.300,153.209,0.000,0.250,0.000,0.750,General,0.000,77.400
 ElectricEquipment Internal Gains Nominal, KITCHEN2.1,EQUIPMENT CHUFANG,KITCHEN2.1,10.80,0.3,46.440,4.300,153.209,0.000,0.250,0.000,0.750,General,0.000,46.440
 ElectricEquipment Internal Gains Nominal, KITCHEN2.2,EQUIPMENT CHUFANG,KITCHEN2.2,10.80,0.3,46.440,4.300,153.209,0.000,0.250,0.000,0.750,General,0.000,46.440
 ElectricEquipment Internal Gains Nominal, KITCHEN2.3,EQUIPMENT CHUFANG,KITCHEN2.3,10.80,0.3,46.440,4.300,153.209,0.000,0.250,0.000,0.750,General,0.000,46.440
 ElectricEquipment Internal Gains Nominal, KITCHEN2.4,EQUIPMENT CHUFANG,KITCHEN2.4,10.80,0.3,46.440,4.300,153.209,0.000,0.250,0.000,0.750,General,0.000,46.440
 ElectricEquipment Internal Gains Nominal, LIVINGROOM2.1,EQUIPMENT-KETING,LIVINGROOM2.1,38.70,1.1,166.410,4.300,153.209,0.000,0.250,0.000,0.750,General,37.609,166.410
 ElectricEquipment Internal Gains Nominal, LIVINGROOM2.2,EQUIPMENT-KETING,LIVINGROOM2.2,38.70,1.1,166.410,4.300,153.209,0.000,0.250,0.000,0.750,General,37.609,166.410
 ElectricEquipment Internal Gains Nominal, LIVINGROOM2.3,EQUIPMENT-KETING,LIVINGROOM2.3,38.70,1.1,166.410,4.300,153.209,0.000,0.250,0.000,0.750,General,37.609,166.410
 ElectricEquipment Internal Gains Nominal, LIVINGROOM2.4,EQUIPMENT-KETING,LIVINGROOM2.4,38.70,1.1,166.410,4.300,153.209,0.000,0.250,0.000,0.750,General,37.609,166.410
 ElectricEquipment Internal Gains Nominal, BEDROOM2.1,EQUIPMENT-BEDROOM,BEDROOM2.1,18.00,0.5,77.400,4.300,153.209,0.000,0.250,0.000,0.750,General,0.000,77.400
 ElectricEquipment Internal Gains Nominal, BEDROOM2.2,EQUIPMENT-BEDROOM,BEDROOM2.2,15.00,0.4,64.500,4.300,153.209,0.000,0.250,0.000,0.750,General,0.000,64.500
 ElectricEquipment Internal Gains Nominal, BEDROOM2.3,EQUIPMENT-BEDROOM,BEDROOM2.3,15.00,0.4,64.500,4.300,153.209,0.000,0.250,0.000,0.750,General,0.000,64.500
 ElectricEquipment Internal Gains Nominal, BEDROOM2.4,EQUIPMENT-BEDROOM,BEDROOM2.4,18.00,0.5,77.400,4.300,153.209,0.000,0.250,0.000,0.750,General,0.000,77.400
 ElectricEquipment Internal Gains Nominal, BEDROOM2.5,EQUIPMENT-BEDROOM,BEDROOM2.5,26.25,0.7,112.875,4.300,153.209,0.000,0.250,0.000,0.750,General,0.000,112.875
 ElectricEquipment Internal Gains Nominal, BEDROOM2.6,EQUIPMENT-BEDROOM,BEDROOM2.6,26.25,0.7,112.875,4.300,153.209,0.000,0.250,0.000,0.750,General,0.000,112.875
 ElectricEquipment Internal Gains Nominal, BEDROOM2.7,EQUIPMENT-BEDROOM,BEDROOM2.7,26.25,0.7,112.875,4.300,153.209,0.000,0.250,0.000,0.750,General,0.000,112.875
 ElectricEquipment Internal Gains Nominal, BEDROOM2.8,EQUIPMENT-BEDROOM,BEDROOM2.8,26.25,0.7,112.875,4.300,153.209,0.000,0.250,0.000,0.750,General,0.000,112.875
 ElectricEquipment Internal Gains Nominal, BEDROOM2.9,EQUIPMENT-BEDROOM,BEDROOM2.9,18.00,0.5,77.400,4.300,153.209,0.000,0.250,0.000,0.750,General,0.000,77.400
 ElectricEquipment Internal Gains Nominal, BEDROOM2.10,EQUIPMENT-BEDROOM,BEDROOM2.10,15.00,0.4,64.500,4.300,153.209,0.000,0.250,0.000,0.750,General,0.000,64.500
 ElectricEquipment Internal Gains Nominal, BEDROOM2.11,EQUIPMENT-BEDROOM,BEDROOM2.11,15.00,0.4,64.500,4.300,153.209,0.000,0.250,0.000,0.750,General,0.000,64.500
 ElectricEquipment Internal Gains Nominal, BEDROOM2.12,EQUIPMENT-BEDROOM,BEDROOM2.12,18.00,0.5,77.400,4.300,153.209,0.000,0.250,0.000,0.750,General,0.000,77.400
 ElectricEquipment Internal Gains Nominal, KITCHEN3.1,EQUIPMENT CHUFANG,KITCHEN3.1,10.80,0.3,46.440,4.300,153.209,0.000,0.250,0.000,0.750,General,0.000,46.440
 ElectricEquipment Internal Gains Nominal, KITCHEN3.2,EQUIPMENT CHUFANG,KITCHEN3.2,10.80,0.3,46.440,4.300,153.209,0.000,0.250,0.000,0.750,General,0.000,46.440
 ElectricEquipment Internal Gains Nominal, KITCHEN3.3,EQUIPMENT CHUFANG,KITCHEN3.3,10.80,0.3,46.440,4.300,153.209,0.000,0.250,0.000,0.750,General,0.000,46.440
 ElectricEquipment Internal Gains Nominal, KITCHEN3.4,EQUIPMENT CHUFANG,KITCHEN3.4,10.80,0.3,46.440,4.300,153.209,0.000,0.250,0.000,0.750,General,0.000,46.440
 ElectricEquipment Internal Gains Nominal, LIVINGROOM3.1,EQUIPMENT-KETING,LIVINGROOM3.1,38.70,1.1,166.410,4.300,153.209,0.000,0.250,0.000,0.750,General,37.609,166.410
 ElectricEquipment Internal Gains Nominal, LIVINGROOM3.2,EQUIPMENT-KETING,LIVINGROOM3.2,38.70,1.1,166.410,4.300,153.209,0.000,0.250,0.000,0.750,General,37.609,166.410
 ElectricEquipment Internal Gains Nominal, LIVINGROOM3.3,EQUIPMENT-KETING,LIVINGROOM3.3,38.70,1.1,166.410,4.300,153.209,0.000,0.250,0.000,0.750,General,37.609,166.410
 ElectricEquipment Internal Gains Nominal, LIVINGROOM3.4,EQUIPMENT-KETING,LIVINGROOM3.4,38.70,1.1,166.410,4.300,153.209,0.000,0.250,0.000,0.750,General,37.609,166.410
 ElectricEquipment Internal Gains Nominal, BEDROOM3.1,EQUIPMENT-BEDROOM,BEDROOM3.1,18.00,0.5,77.400,4.300,153.209,0.000,0.250,0.000,0.750,General,0.000,77.400
 ElectricEquipment Internal Gains Nominal, BEDROOM3.2,EQUIPMENT-BEDROOM,BEDROOM3.2,15.00,0.4,64.500,4.300,153.209,0.000,0.250,0.000,0.750,General,0.000,64.500
 ElectricEquipment Internal Gains Nominal, BEDROOM3.3,EQUIPMENT-BEDROOM,BEDROOM3.3,15.00,0.4,64.500,4.300,153.209,0.000,0.250,0.000,0.750,General,0.000,64.500
 ElectricEquipment Internal Gains Nominal, BEDROOM3.4,EQUIPMENT-BEDROOM,BEDROOM3.4,18.00,0.5,77.400,4.300,153.209,0.000,0.250,0.000,0.750,General,0.000,77.400
 ElectricEquipment Internal Gains Nominal, BEDROOM3.5,EQUIPMENT-BEDROOM,BEDROOM3.5,26.25,0.7,112.875,4.300,153.209,0.000,0.250,0.000,0.750,General,0.000,112.875
 ElectricEquipment Internal Gains Nominal, BEDROOM3.6,EQUIPMENT-BEDROOM,BEDROOM3.6,26.25,0.7,112.875,4.300,153.209,0.000,0.250,0.000,0.750,General,0.000,112.875
 ElectricEquipment Internal Gains Nominal, BEDROOM3.7,EQUIPMENT-BEDROOM,BEDROOM3.7,26.25,0.7,112.875,4.300,153.209,0.000,0.250,0.000,0.750,General,0.000,112.875
 ElectricEquipment Internal Gains Nominal, BEDROOM3.8,EQUIPMENT-BEDROOM,BEDROOM3.8,26.25,0.7,112.875,4.300,153.209,0.000,0.250,0.000,0.750,General,0.000,112.875
 ElectricEquipment Internal Gains Nominal, BEDROOM3.9,EQUIPMENT-BEDROOM,BEDROOM3.9,18.00,0.5,77.400,4.300,153.209,0.000,0.250,0.000,0.750,General,0.000,77.400
 ElectricEquipment Internal Gains Nominal, BEDROOM3.10,EQUIPMENT-BEDROOM,BEDROOM3.10,15.00,0.4,64.500,4.300,153.209,0.000,0.250,0.000,0.750,General,0.000,64.500
 ElectricEquipment Internal Gains Nominal, BEDROOM3.11,EQUIPMENT-BEDROOM,BEDROOM3.11,15.00,0.4,64.500,4.300,153.209,0.000,0.250,0.000,0.750,General,0.000,64.500
 ElectricEquipment Internal Gains Nominal, BEDROOM3.12,EQUIPMENT-BEDROOM,BEDROOM3.12,18.00,0.5,77.400,4.300,153.209,0.000,0.250,0.000,0.750,General,0.000,77.400
! <Shadowing/Sun Position Calculations Annual Simulations>, Calculation Method, Value {days}, Allowable Number Figures in Shadow Overlap {}, Polygon Clipping Algorithm, Sky Diffuse Modeling Algorithm
Shadowing/Sun Position Calculations Annual Simulations,AverageOverDaysInFrequency,20,15000,SutherlandHodgman,SimpleSkyDiffuseModeling
! <ZoneInfiltration Airflow Stats Nominal>,Name,Schedule Name,Zone Name, Zone Floor Area {m2}, # Zone Occupants,Design Volume Flow Rate {m3/s},Volume Flow Rate/Floor Area {m3/s/m2},Volume Flow Rate/Exterior Surface Area {m3/s/m2},ACH - Air Changes per Hour,Equation A - Constant Term Coefficient {},Equation B - Temperature Term Coefficient {1/C},Equation C - Velocity Term Coefficient {s/m}, Equation D - Velocity Squared Term Coefficient {s2/m2}
 ZoneInfiltration Airflow Stats Nominal, KITCHEN1.1,ALWAYS ON,KITCHEN1.1,10.80,0.3,9.000E-003,8.333E-004,N/A,1.000,0.606,3.600E-002,0.118,0.000
 ZoneInfiltration Airflow Stats Nominal, KITCHEN1.2,ALWAYS ON,KITCHEN1.2,10.80,0.3,9.000E-003,8.333E-004,N/A,1.000,0.606,3.600E-002,0.118,0.000
 ZoneInfiltration Airflow Stats Nominal, KITCHEN1.3,ALWAYS ON,KITCHEN1.3,10.80,0.3,9.000E-003,8.333E-004,N/A,1.000,0.606,3.600E-002,0.118,0.000
 ZoneInfiltration Airflow Stats Nominal, KITCHEN1.4,ALWAYS ON,KITCHEN1.4,10.80,0.3,9.000E-003,8.333E-004,N/A,1.000,0.606,3.600E-002,0.118,0.000
 ZoneInfiltration Airflow Stats Nominal, LIVINGROOM1.1,ALWAYS ON,LIVINGROOM1.1,38.70,1.1,3.225E-002,8.333E-004,2.389E-003,1.000,0.606,3.600E-002,0.118,0.000
 ZoneInfiltration Airflow Stats Nominal, LIVINGROOM1.2,ALWAYS ON,LIVINGROOM1.2,38.70,1.1,3.225E-002,8.333E-004,2.389E-003,1.000,0.606,3.600E-002,0.118,0.000
 ZoneInfiltration Airflow Stats Nominal, LIVINGROOM1.3,ALWAYS ON,LIVINGROOM1.3,38.70,1.1,3.225E-002,8.333E-004,2.389E-003,1.000,0.606,3.600E-002,0.118,0.000
 ZoneInfiltration Airflow Stats Nominal, LIVINGROOM1.4,ALWAYS ON,LIVINGROOM1.4,38.70,1.1,3.225E-002,8.333E-004,2.389E-003,1.000,0.606,3.600E-002,0.118,0.000
 ZoneInfiltration Airflow Stats Nominal, BEDROOM1.1,ALWAYS ON,BEDROOM1.1,18.00,0.5,1.500E-002,8.333E-004,5.556E-004,1.000,0.606,3.600E-002,0.118,0.000
 ZoneInfiltration Airflow Stats Nominal, BEDROOM1.2,ALWAYS ON,BEDROOM1.2,15.00,0.4,1.250E-002,8.333E-004,8.333E-004,1.000,0.606,3.600E-002,0.118,0.000
 ZoneInfiltration Airflow Stats Nominal, BEDROOM1.3,ALWAYS ON,BEDROOM1.3,15.00,0.4,1.250E-002,8.333E-004,8.333E-004,1.000,0.606,3.600E-002,0.118,0.000
 ZoneInfiltration Airflow Stats Nominal, BEDROOM1.4,ALWAYS ON,BEDROOM1.4,18.00,0.5,1.500E-002,8.333E-004,5.556E-004,1.000,0.606,3.600E-002,0.118,0.000
 ZoneInfiltration Airflow Stats Nominal, BEDROOM1.5,ALWAYS ON,BEDROOM1.5,26.25,0.7,2.188E-002,8.333E-004,2.083E-003,1.000,0.606,3.600E-002,0.118,0.000
 ZoneInfiltration Airflow Stats Nominal, BEDROOM1.6,ALWAYS ON,BEDROOM1.6,26.25,0.7,2.187E-002,8.333E-004,2.083E-003,1.000,0.606,3.600E-002,0.118,0.000
 ZoneInfiltration Airflow Stats Nominal, BEDROOM1.7,ALWAYS ON,BEDROOM1.7,26.25,0.7,2.188E-002,8.333E-004,2.083E-003,1.000,0.606,3.600E-002,0.118,0.000
 ZoneInfiltration Airflow Stats Nominal, BEDROOM1.8,ALWAYS ON,BEDROOM1.8,26.25,0.7,2.187E-002,8.333E-004,2.083E-003,1.000,0.606,3.600E-002,0.118,0.000
 ZoneInfiltration Airflow Stats Nominal, BEDROOM1.9,ALWAYS ON,BEDROOM1.9,18.00,0.5,1.500E-002,8.333E-004,5.556E-004,1.000,0.606,3.600E-002,0.118,0.000
 ZoneInfiltration Airflow Stats Nominal, BEDROOM1.10,ALWAYS ON,BEDROOM1.10,15.00,0.4,1.250E-002,8.333E-004,8.333E-004,1.000,0.606,3.600E-002,0.118,0.000
 ZoneInfiltration Airflow Stats Nominal, BEDROOM1.11,ALWAYS ON,BEDROOM1.11,15.00,0.4,1.250E-002,8.333E-004,8.333E-004,1.000,0.606,3.600E-002,0.118,0.000
 ZoneInfiltration Airflow Stats Nominal, BEDROOM1.12,ALWAYS ON,BEDROOM1.12,18.00,0.5,1.500E-002,8.333E-004,5.556E-004,1.000,0.606,3.600E-002,0.118,0.000
 ZoneInfiltration Airflow Stats Nominal, KITCHEN2.1,ALWAYS ON,KITCHEN2.1,10.80,0.3,9.000E-003,8.333E-004,N/A,1.000,0.606,3.600E-002,0.118,0.000
 ZoneInfiltration Airflow Stats Nominal, KITCHEN2.2,ALWAYS ON,KITCHEN2.2,10.80,0.3,9.000E-003,8.333E-004,N/A,1.000,0.606,3.600E-002,0.118,0.000
 ZoneInfiltration Airflow Stats Nominal, KITCHEN2.3,ALWAYS ON,KITCHEN2.3,10.80,0.3,9.000E-003,8.333E-004,N/A,1.000,0.606,3.600E-002,0.118,0.000
 ZoneInfiltration Airflow Stats Nominal, KITCHEN2.4,ALWAYS ON,KITCHEN2.4,10.80,0.3,9.000E-003,8.333E-004,N/A,1.000,0.606,3.600E-002,0.118,0.000
 ZoneInfiltration Airflow Stats Nominal, LIVINGROOM2.1,ALWAYS ON,LIVINGROOM2.1,38.70,1.1,3.225E-002,8.333E-004,2.389E-003,1.000,0.606,3.600E-002,0.118,0.000
 ZoneInfiltration Airflow Stats Nominal, LIVINGROOM2.2,ALWAYS ON,LIVINGROOM2.2,38.70,1.1,3.225E-002,8.333E-004,2.389E-003,1.000,0.606,3.600E-002,0.118,0.000
 ZoneInfiltration Airflow Stats Nominal, LIVINGROOM2.3,ALWAYS ON,LIVINGROOM2.3,38.70,1.1,3.225E-002,8.333E-004,2.389E-003,1.000,0.606,3.600E-002,0.118,0.000
 ZoneInfiltration Airflow Stats Nominal, LIVINGROOM2.4,ALWAYS ON,LIVINGROOM2.4,38.70,1.1,3.225E-002,8.333E-004,2.389E-003,1.000,0.606,3.600E-002,0.118,0.000
 ZoneInfiltration Airflow Stats Nominal, BEDROOM2.1,ALWAYS ON,BEDROOM2.1,18.00,0.5,1.500E-002,8.333E-004,5.556E-004,1.000,0.606,3.600E-002,0.118,0.000
 ZoneInfiltration Airflow Stats Nominal, BEDROOM2.2,ALWAYS ON,BEDROOM2.2,15.00,0.4,1.250E-002,8.333E-004,8.333E-004,1.000,0.606,3.600E-002,0.118,0.000
 ZoneInfiltration Airflow Stats Nominal, BEDROOM2.3,ALWAYS ON,BEDROOM2.3,15.00,0.4,1.250E-002,8.333E-004,8.333E-004,1.000,0.606,3.600E-002,0.118,0.000
 ZoneInfiltration Airflow Stats Nominal, BEDROOM2.4,ALWAYS ON,BEDROOM2.4,18.00,0.5,1.500E-002,8.333E-004,5.556E-004,1.000,0.606,3.600E-002,0.118,0.000
 ZoneInfiltration Airflow Stats Nominal, BEDROOM2.5,ALWAYS ON,BEDROOM2.5,26.25,0.7,2.188E-002,8.333E-004,2.083E-003,1.000,0.606,3.600E-002,0.118,0.000
 ZoneInfiltration Airflow Stats Nominal, BEDROOM2.6,ALWAYS ON,BEDROOM2.6,26.25,0.7,2.187E-002,8.333E-004,2.083E-003,1.000,0.606,3.600E-002,0.118,0.000
 ZoneInfiltration Airflow Stats Nominal, BEDROOM2.7,ALWAYS ON,BEDROOM2.7,26.25,0.7,2.188E-002,8.333E-004,2.083E-003,1.000,0.606,3.600E-002,0.118,0.000
 ZoneInfiltration Airflow Stats Nominal, BEDROOM2.8,ALWAYS ON,BEDROOM2.8,26.25,0.7,2.187E-002,8.333E-004,2.083E-003,1.000,0.606,3.600E-002,0.118,0.000
 ZoneInfiltration Airflow Stats Nominal, BEDROOM2.9,ALWAYS ON,BEDROOM2.9,18.00,0.5,1.500E-002,8.333E-004,5.556E-004,1.000,0.606,3.600E-002,0.118,0.000
 ZoneInfiltration Airflow Stats Nominal, BEDROOM2.10,ALWAYS ON,BEDROOM2.10,15.00,0.4,1.250E-002,8.333E-004,8.333E-004,1.000,0.606,3.600E-002,0.118,0.000
 ZoneInfiltration Airflow Stats Nominal, BEDROOM2.11,ALWAYS ON,BEDROOM2.11,15.00,0.4,1.250E-002,8.333E-004,8.333E-004,1.000,0.606,3.600E-002,0.118,0.000
 ZoneInfiltration Airflow Stats Nominal, BEDROOM2.12,ALWAYS ON,BEDROOM2.12,18.00,0.5,1.500E-002,8.333E-004,5.556E-004,1.000,0.606,3.600E-002,0.118,0.000
 ZoneInfiltration Airflow Stats Nominal, KITCHEN3.1,ALWAYS ON,KITCHEN3.1,10.80,0.3,9.000E-003,8.333E-004,8.333E-004,1.000,0.606,3.600E-002,0.118,0.000
 ZoneInfiltration Airflow Stats Nominal, KITCHEN3.2,ALWAYS ON,KITCHEN3.2,10.80,0.3,9.000E-003,8.333E-004,8.333E-004,1.000,0.606,3.600E-002,0.118,0.000
 ZoneInfiltration Airflow Stats Nominal, KITCHEN3.3,ALWAYS ON,KITCHEN3.3,10.80,0.3,9.000E-003,8.333E-004,8.333E-004,1.000,0.606,3.600E-002,0.118,0.000
 ZoneInfiltration Airflow Stats Nominal, KITCHEN3.4,ALWAYS ON,KITCHEN3.4,10.80,0.3,9.000E-003,8.333E-004,8.333E-004,1.000,0.606,3.600E-002,0.118,0.000
 ZoneInfiltration Airflow Stats Nominal, LIVINGROOM3.1,ALWAYS ON,LIVINGROOM3.1,38.70,1.1,3.225E-002,8.333E-004,6.178E-004,1.000,0.606,3.600E-002,0.118,0.000
 ZoneInfiltration Airflow Stats Nominal, LIVINGROOM3.2,ALWAYS ON,LIVINGROOM3.2,38.70,1.1,3.225E-002,8.333E-004,6.178E-004,1.000,0.606,3.600E-002,0.118,0.000
 ZoneInfiltration Airflow Stats Nominal, LIVINGROOM3.3,ALWAYS ON,LIVINGROOM3.3,38.70,1.1,3.225E-002,8.333E-004,6.178E-004,1.000,0.606,3.600E-002,0.118,0.000
 ZoneInfiltration Airflow Stats Nominal, LIVINGROOM3.4,ALWAYS ON,LIVINGROOM3.4,38.70,1.1,3.225E-002,8.333E-004,6.178E-004,1.000,0.606,3.600E-002,0.118,0.000
 ZoneInfiltration Airflow Stats Nominal, BEDROOM3.1,ALWAYS ON,BEDROOM3.1,18.00,0.5,1.500E-002,8.333E-004,3.333E-004,1.000,0.606,3.600E-002,0.118,0.000
 ZoneInfiltration Airflow Stats Nominal, BEDROOM3.2,ALWAYS ON,BEDROOM3.2,15.00,0.4,1.250E-002,8.333E-004,4.167E-004,1.000,0.606,3.600E-002,0.118,0.000
 ZoneInfiltration Airflow Stats Nominal, BEDROOM3.3,ALWAYS ON,BEDROOM3.3,15.00,0.4,1.250E-002,8.333E-004,4.167E-004,1.000,0.606,3.600E-002,0.118,0.000
 ZoneInfiltration Airflow Stats Nominal, BEDROOM3.4,ALWAYS ON,BEDROOM3.4,18.00,0.5,1.500E-002,8.333E-004,3.333E-004,1.000,0.606,3.600E-002,0.118,0.000
 ZoneInfiltration Airflow Stats Nominal, BEDROOM3.5,ALWAYS ON,BEDROOM3.5,26.25,0.7,2.188E-002,8.333E-004,5.952E-004,1.000,0.606,3.600E-002,0.118,0.000
 ZoneInfiltration Airflow Stats Nominal, BEDROOM3.6,ALWAYS ON,BEDROOM3.6,26.25,0.7,2.187E-002,8.333E-004,5.952E-004,1.000,0.606,3.600E-002,0.118,0.000
 ZoneInfiltration Airflow Stats Nominal, BEDROOM3.7,ALWAYS ON,BEDROOM3.7,26.25,0.7,2.188E-002,8.333E-004,5.952E-004,1.000,0.606,3.600E-002,0.118,0.000
 ZoneInfiltration Airflow Stats Nominal, BEDROOM3.8,ALWAYS ON,BEDROOM3.8,26.25,0.7,2.187E-002,8.333E-004,5.952E-004,1.000,0.606,3.600E-002,0.118,0.000
 ZoneInfiltration Airflow Stats Nominal, BEDROOM3.9,ALWAYS ON,BEDROOM3.9,18.00,0.5,1.500E-002,8.333E-004,3.333E-004,1.000,0.606,3.600E-002,0.118,0.000
 ZoneInfiltration Airflow Stats Nominal, BEDROOM3.10,ALWAYS ON,BEDROOM3.10,15.00,0.4,1.250E-002,8.333E-004,4.167E-004,1.000,0.606,3.600E-002,0.118,0.000
 ZoneInfiltration Airflow Stats Nominal, BEDROOM3.11,ALWAYS ON,BEDROOM3.11,15.00,0.4,1.250E-002,8.333E-004,4.167E-004,1.000,0.606,3.600E-002,0.118,0.000
 ZoneInfiltration Airflow Stats Nominal, BEDROOM3.12,ALWAYS ON,BEDROOM3.12,18.00,0.5,1.500E-002,8.333E-004,3.333E-004,1.000,0.606,3.600E-002,0.118,0.000
! <ZoneVentilation Airflow Stats Nominal>,Name,Schedule Name,Zone Name, Zone Floor Area {m2}, # Zone Occupants,Design Volume Flow Rate {m3/s},Volume Flow Rate/Floor Area {m3/s/m2},Volume Flow Rate/person Area {m3/s/person},ACH - Air Changes per Hour,Fan Type {Exhaust;Intake;Natural},Fan Pressure Rise {Pa},Fan Efficiency {},Equation A - Constant Term Coefficient {},Equation B - Temperature Term Coefficient {1/C},Equation C - Velocity Term Coefficient {s/m}, Equation D - Velocity Squared Term Coefficient {s2/m2},Minimum Indoor Temperature{C}/Schedule,Maximum Indoor Temperature{C}/Schedule,Delta Temperature{C}/Schedule,Minimum Outdoor Temperature{C}/Schedule,Maximum Outdoor Temperature{C}/Schedule,Maximum WindSpeed{m/s}
 ZoneVentilation Airflow Stats Nominal, JICHUKITCHEN1.1,JICHUTONGFENGQITA,KITCHEN1.1,10.80,0.3,3.600E-002,3.333E-003,0.119,4.000,Natural,0.000,1.0,0.606,3.600E-002,0.118,0.000,-100.00,100.00,-100.00,-100.00,100.00,40.00
 ZoneVentilation Airflow Stats Nominal, JICHUKITCHEN1.2,JICHUTONGFENGQITA,KITCHEN1.2,10.80,0.3,3.600E-002,3.333E-003,0.119,4.000,Natural,0.000,1.0,0.606,3.600E-002,0.118,0.000,-100.00,100.00,-100.00,-100.00,100.00,40.00
 ZoneVentilation Airflow Stats Nominal, JICHUKITCHEN1.3,JICHUTONGFENGQITA,KITCHEN1.3,10.80,0.3,3.600E-002,3.333E-003,0.119,4.000,Natural,0.000,1.0,0.606,3.600E-002,0.118,0.000,-100.00,100.00,-100.00,-100.00,100.00,40.00
 ZoneVentilation Airflow Stats Nominal, JICHUKITCHEN1.4,JICHUTONGFENGQITA,KITCHEN1.4,10.80,0.3,3.600E-002,3.333E-003,0.119,4.000,Natural,0.000,1.0,0.606,3.600E-002,0.118,0.000,-100.00,100.00,-100.00,-100.00,100.00,40.00
 ZoneVentilation Airflow Stats Nominal, JICHULIVINGROOM1.1,JICHUTONGFENGKETING,LIVINGROOM1.1,38.70,1.1,0.129,3.333E-003,0.119,4.000,Natural,0.000,1.0,0.606,3.600E-002,0.118,0.000,-100.00,100.00,-100.00,-100.00,100.00,40.00
 ZoneVentilation Airflow Stats Nominal, JICHULIVINGROOM1.2,JICHUTONGFENGKETING,LIVINGROOM1.2,38.70,1.1,0.129,3.333E-003,0.119,4.000,Natural,0.000,1.0,0.606,3.600E-002,0.118,0.000,-100.00,100.00,-100.00,-100.00,100.00,40.00
 ZoneVentilation Airflow Stats Nominal, JICHULIVINGROOM1.3,JICHUTONGFENGKETING,LIVINGROOM1.3,38.70,1.1,0.129,3.333E-003,0.119,4.000,Natural,0.000,1.0,0.606,3.600E-002,0.118,0.000,-100.00,100.00,-100.00,-100.00,100.00,40.00
 ZoneVentilation Airflow Stats Nominal, JICHULIVINGROOM1.4,JICHUTONGFENGKETING,LIVINGROOM1.4,38.70,1.1,0.129,3.333E-003,0.119,4.000,Natural,0.000,1.0,0.606,3.600E-002,0.118,0.000,-100.00,100.00,-100.00,-100.00,100.00,40.00
 ZoneVentilation Airflow Stats Nominal, JICHUBEDROOM1.1,JICHUTONGFENGBEDROOM,BEDROOM1.1,18.00,0.5,6.000E-002,3.333E-003,0.119,4.000,Natural,0.000,1.0,0.606,3.600E-002,0.118,0.000,-100.00,100.00,-100.00,-100.00,100.00,40.00
 ZoneVentilation Airflow Stats Nominal, JICHUBEDROOM1.2,JICHUTONGFENGBEDROOM,BEDROOM1.2,15.00,0.4,5.000E-002,3.333E-003,0.119,4.000,Natural,0.000,1.0,0.606,3.600E-002,0.118,0.000,-100.00,100.00,-100.00,-100.00,100.00,40.00
 ZoneVentilation Airflow Stats Nominal, JICHUBEDROOM1.3,JICHUTONGFENGBEDROOM,BEDROOM1.3,15.00,0.4,5.000E-002,3.333E-003,0.119,4.000,Natural,0.000,1.0,0.606,3.600E-002,0.118,0.000,-100.00,100.00,-100.00,-100.00,100.00,40.00
 ZoneVentilation Airflow Stats Nominal, JICHUBEDROOM1.4,JICHUTONGFENGBEDROOM,BEDROOM1.4,18.00,0.5,6.000E-002,3.333E-003,0.119,4.000,Natural,0.000,1.0,0.606,3.600E-002,0.118,0.000,-100.00,100.00,-100.00,-100.00,100.00,40.00
 ZoneVentilation Airflow Stats Nominal, JICHUBEDROOM1.5,JICHUTONGFENGBEDROOM,BEDROOM1.5,26.25,0.7,8.750E-002,3.333E-003,0.119,4.000,Natural,0.000,1.0,0.606,3.600E-002,0.118,0.000,-100.00,100.00,-100.00,-100.00,100.00,40.00
 ZoneVentilation Airflow Stats Nominal, JICHUBEDROOM1.6,JICHUTONGFENGBEDROOM,BEDROOM1.6,26.25,0.7,8.750E-002,3.333E-003,0.119,4.000,Natural,0.000,1.0,0.606,3.600E-002,0.118,0.000,-100.00,100.00,-100.00,-100.00,100.00,40.00
 ZoneVentilation Airflow Stats Nominal, JICHUBEDROOM1.7,JICHUTONGFENGBEDROOM,BEDROOM1.7,26.25,0.7,8.750E-002,3.333E-003,0.119,4.000,Natural,0.000,1.0,0.606,3.600E-002,0.118,0.000,-100.00,100.00,-100.00,-100.00,100.00,40.00
 ZoneVentilation Airflow Stats Nominal, JICHUBEDROOM1.8,JICHUTONGFENGBEDROOM,BEDROOM1.8,26.25,0.7,8.750E-002,3.333E-003,0.119,4.000,Natural,0.000,1.0,0.606,3.600E-002,0.118,0.000,-100.00,100.00,-100.00,-100.00,100.00,40.00
 ZoneVentilation Airflow Stats Nominal, JICHUBEDROOM1.9,JICHUTONGFENGBEDROOM,BEDROOM1.9,18.00,0.5,6.000E-002,3.333E-003,0.119,4.000,Natural,0.000,1.0,0.606,3.600E-002,0.118,0.000,-100.00,100.00,-100.00,-100.00,100.00,40.00
 ZoneVentilation Airflow Stats Nominal, JICHUBEDROOM1.10,JICHUTONGFENGBEDROOM,BEDROOM1.10,15.00,0.4,5.000E-002,3.333E-003,0.119,4.000,Natural,0.000,1.0,0.606,3.600E-002,0.118,0.000,-100.00,100.00,-100.00,-100.00,100.00,40.00
 ZoneVentilation Airflow Stats Nominal, JICHUBEDROOM1.11,JICHUTONGFENGBEDROOM,BEDROOM1.11,15.00,0.4,5.000E-002,3.333E-003,0.119,4.000,Natural,0.000,1.0,0.606,3.600E-002,0.118,0.000,-100.00,100.00,-100.00,-100.00,100.00,40.00
 ZoneVentilation Airflow Stats Nominal, JICHUBEDROOM1.12,JICHUTONGFENGBEDROOM,BEDROOM1.12,18.00,0.5,6.000E-002,3.333E-003,0.119,4.000,Natural,0.000,1.0,0.606,3.600E-002,0.118,0.000,-100.00,100.00,-100.00,-100.00,100.00,40.00
 ZoneVentilation Airflow Stats Nominal, JICHUKITCHEN2.1,JICHUTONGFENGQITA,KITCHEN2.1,10.80,0.3,3.600E-002,3.333E-003,0.119,4.000,Natural,0.000,1.0,0.606,3.600E-002,0.118,0.000,-100.00,100.00,-100.00,-100.00,100.00,40.00
 ZoneVentilation Airflow Stats Nominal, JICHUKITCHEN2.2,JICHUTONGFENGQITA,KITCHEN2.2,10.80,0.3,3.600E-002,3.333E-003,0.119,4.000,Natural,0.000,1.0,0.606,3.600E-002,0.118,0.000,-100.00,100.00,-100.00,-100.00,100.00,40.00
 ZoneVentilation Airflow Stats Nominal, JICHUKITCHEN2.3,JICHUTONGFENGQITA,KITCHEN2.3,10.80,0.3,3.600E-002,3.333E-003,0.119,4.000,Natural,0.000,1.0,0.606,3.600E-002,0.118,0.000,-100.00,100.00,-100.00,-100.00,100.00,40.00
 ZoneVentilation Airflow Stats Nominal, JICHUKITCHEN2.4,JICHUTONGFENGQITA,KITCHEN2.4,10.80,0.3,3.600E-002,3.333E-003,0.119,4.000,Natural,0.000,1.0,0.606,3.600E-002,0.118,0.000,-100.00,100.00,-100.00,-100.00,100.00,40.00
 ZoneVentilation Airflow Stats Nominal, JICHULIVINGROOM2.1,JICHUTONGFENGKETING,LIVINGROOM2.1,38.70,1.1,0.129,3.333E-003,0.119,4.000,Natural,0.000,1.0,0.606,3.600E-002,0.118,0.000,-100.00,100.00,-100.00,-100.00,100.00,40.00
 ZoneVentilation Airflow Stats Nominal, JICHULIVINGROOM2.2,JICHUTONGFENGKETING,LIVINGROOM2.2,38.70,1.1,0.129,3.333E-003,0.119,4.000,Natural,0.000,1.0,0.606,3.600E-002,0.118,0.000,-100.00,100.00,-100.00,-100.00,100.00,40.00
 ZoneVentilation Airflow Stats Nominal, JICHULIVINGROOM2.3,JICHUTONGFENGKETING,LIVINGROOM2.3,38.70,1.1,0.129,3.333E-003,0.119,4.000,Natural,0.000,1.0,0.606,3.600E-002,0.118,0.000,-100.00,100.00,-100.00,-100.00,100.00,40.00
 ZoneVentilation Airflow Stats Nominal, JICHULIVINGROOM2.4,JICHUTONGFENGKETING,LIVINGROOM2.4,38.70,1.1,0.129,3.333E-003,0.119,4.000,Natural,0.000,1.0,0.606,3.600E-002,0.118,0.000,-100.00,100.00,-100.00,-100.00,100.00,40.00
 ZoneVentilation Airflow Stats Nominal, JICHUBEDROOM2.1,JICHUTONGFENGBEDROOM,BEDROOM2.1,18.00,0.5,6.000E-002,3.333E-003,0.119,4.000,Natural,0.000,1.0,0.606,3.600E-002,0.118,0.000,-100.00,100.00,-100.00,-100.00,100.00,40.00
 ZoneVentilation Airflow Stats Nominal, JICHUBEDROOM2.2,JICHUTONGFENGBEDROOM,BEDROOM2.2,15.00,0.4,5.000E-002,3.333E-003,0.119,4.000,Natural,0.000,1.0,0.606,3.600E-002,0.118,0.000,-100.00,100.00,-100.00,-100.00,100.00,40.00
 ZoneVentilation Airflow Stats Nominal, JICHUBEDROOM2.3,JICHUTONGFENGBEDROOM,BEDROOM2.3,15.00,0.4,5.000E-002,3.333E-003,0.119,4.000,Natural,0.000,1.0,0.606,3.600E-002,0.118,0.000,-100.00,100.00,-100.00,-100.00,100.00,40.00
 ZoneVentilation Airflow Stats Nominal, JICHUBEDROOM2.4,JICHUTONGFENGBEDROOM,BEDROOM2.4,18.00,0.5,6.000E-002,3.333E-003,0.119,4.000,Natural,0.000,1.0,0.606,3.600E-002,0.118,0.000,-100.00,100.00,-100.00,-100.00,100.00,40.00
 ZoneVentilation Airflow Stats Nominal, JICHUBEDROOM2.5,JICHUTONGFENGBEDROOM,BEDROOM2.5,26.25,0.7,8.750E-002,3.333E-003,0.119,4.000,Natural,0.000,1.0,0.606,3.600E-002,0.118,0.000,-100.00,100.00,-100.00,-100.00,100.00,40.00
 ZoneVentilation Airflow Stats Nominal, JICHUBEDROOM2.6,JICHUTONGFENGBEDROOM,BEDROOM2.6,26.25,0.7,8.750E-002,3.333E-003,0.119,4.000,Natural,0.000,1.0,0.606,3.600E-002,0.118,0.000,-100.00,100.00,-100.00,-100.00,100.00,40.00
 ZoneVentilation Airflow Stats Nominal, JICHUBEDROOM2.7,JICHUTONGFENGBEDROOM,BEDROOM2.7,26.25,0.7,8.750E-002,3.333E-003,0.119,4.000,Natural,0.000,1.0,0.606,3.600E-002,0.118,0.000,-100.00,100.00,-100.00,-100.00,100.00,40.00
 ZoneVentilation Airflow Stats Nominal, JICHUBEDROOM2.8,JICHUTONGFENGBEDROOM,BEDROOM2.8,26.25,0.7,8.750E-002,3.333E-003,0.119,4.000,Natural,0.000,1.0,0.606,3.600E-002,0.118,0.000,-100.00,100.00,-100.00,-100.00,100.00,40.00
 ZoneVentilation Airflow Stats Nominal, JICHUBEDROOM2.9,JICHUTONGFENGBEDROOM,BEDROOM2.9,18.00,0.5,6.000E-002,3.333E-003,0.119,4.000,Natural,0.000,1.0,0.606,3.600E-002,0.118,0.000,-100.00,100.00,-100.00,-100.00,100.00,40.00
 ZoneVentilation Airflow Stats Nominal, JICHUBEDROOM2.10,JICHUTONGFENGBEDROOM,BEDROOM2.10,15.00,0.4,5.000E-002,3.333E-003,0.119,4.000,Natural,0.000,1.0,0.606,3.600E-002,0.118,0.000,-100.00,100.00,-100.00,-100.00,100.00,40.00
 ZoneVentilation Airflow Stats Nominal, JICHUBEDROOM2.11,JICHUTONGFENGBEDROOM,BEDROOM2.11,15.00,0.4,5.000E-002,3.333E-003,0.119,4.000,Natural,0.000,1.0,0.606,3.600E-002,0.118,0.000,-100.00,100.00,-100.00,-100.00,100.00,40.00
 ZoneVentilation Airflow Stats Nominal, JICHUBEDROOM2.12,JICHUTONGFENGBEDROOM,BEDROOM2.12,18.00,0.5,6.000E-002,3.333E-003,0.119,4.000,Natural,0.000,1.0,0.606,3.600E-002,0.118,0.000,-100.00,100.00,-100.00,-100.00,100.00,40.00
 ZoneVentilation Airflow Stats Nominal, JICHUKITCHEN3.1,JICHUTONGFENGQITA,KITCHEN3.1,10.80,0.3,3.600E-002,3.333E-003,0.119,4.000,Natural,0.000,1.0,0.606,3.600E-002,0.118,0.000,-100.00,100.00,-100.00,-100.00,100.00,40.00
 ZoneVentilation Airflow Stats Nominal, JICHUKITCHEN3.2,JICHUTONGFENGQITA,KITCHEN3.2,10.80,0.3,3.600E-002,3.333E-003,0.119,4.000,Natural,0.000,1.0,0.606,3.600E-002,0.118,0.000,-100.00,100.00,-100.00,-100.00,100.00,40.00
 ZoneVentilation Airflow Stats Nominal, JICHUKITCHEN3.3,JICHUTONGFENGQITA,KITCHEN3.3,10.80,0.3,3.600E-002,3.333E-003,0.119,4.000,Natural,0.000,1.0,0.606,3.600E-002,0.118,0.000,-100.00,100.00,-100.00,-100.00,100.00,40.00
 ZoneVentilation Airflow Stats Nominal, JICHUKITCHEN3.4,JICHUTONGFENGQITA,KITCHEN3.4,10.80,0.3,3.600E-002,3.333E-003,0.119,4.000,Natural,0.000,1.0,0.606,3.600E-002,0.118,0.000,-100.00,100.00,-100.00,-100.00,100.00,40.00
 ZoneVentilation Airflow Stats Nominal, JICHULIVINGROOM3.1,JICHUTONGFENGKETING,LIVINGROOM3.1,38.70,1.1,0.129,3.333E-003,0.119,4.000,Natural,0.000,1.0,0.606,3.600E-002,0.118,0.000,-100.00,100.00,-100.00,-100.00,100.00,40.00
 ZoneVentilation Airflow Stats Nominal, JICHULIVINGROOM3.2,JICHUTONGFENGKETING,LIVINGROOM3.2,38.70,1.1,0.129,3.333E-003,0.119,4.000,Natural,0.000,1.0,0.606,3.600E-002,0.118,0.000,-100.00,100.00,-100.00,-100.00,100.00,40.00
 ZoneVentilation Airflow Stats Nominal, JICHULIVINGROOM3.3,JICHUTONGFENGKETING,LIVINGROOM3.3,38.70,1.1,0.129,3.333E-003,0.119,4.000,Natural,0.000,1.0,0.606,3.600E-002,0.118,0.000,-100.00,100.00,-100.00,-100.00,100.00,40.00
 ZoneVentilation Airflow Stats Nominal, JICHULIVINGROOM3.4,JICHUTONGFENGKETING,LIVINGROOM3.4,38.70,1.1,0.129,3.333E-003,0.119,4.000,Natural,0.000,1.0,0.606,3.600E-002,0.118,0.000,-100.00,100.00,-100.00,-100.00,100.00,40.00
 ZoneVentilation Airflow Stats Nominal, JICHUBEDROOM3.1,JICHUTONGFENGBEDROOM,BEDROOM3.1,18.00,0.5,6.000E-002,3.333E-003,0.119,4.000,Natural,0.000,1.0,0.606,3.600E-002,0.118,0.000,-100.00,100.00,-100.00,-100.00,100.00,40.00
 ZoneVentilation Airflow Stats Nominal, JICHUBEDROOM3.2,JICHUTONGFENGBEDROOM,BEDROOM3.2,15.00,0.4,5.000E-002,3.333E-003,0.119,4.000,Natural,0.000,1.0,0.606,3.600E-002,0.118,0.000,-100.00,100.00,-100.00,-100.00,100.00,40.00
 ZoneVentilation Airflow Stats Nominal, JICHUBEDROOM3.3,JICHUTONGFENGBEDROOM,BEDROOM3.3,15.00,0.4,5.000E-002,3.333E-003,0.119,4.000,Natural,0.000,1.0,0.606,3.600E-002,0.118,0.000,-100.00,100.00,-100.00,-100.00,100.00,40.00
[...]
 ZoneVentilation Airflow Stats Nominal, LIVINGROOM2.2,TONGFENGCISHUBIANLIANG,LIVINGROOM2.2,38.70,1.1,0.185,4.768E-003,0.170,5.721,Natural,0.000,1.0,0.606,3.600E-002,0.118,0.000,-100.00,100.00,-100.00,15.37,28.78,40.00
 ZoneVentilation Airflow Stats Nominal, LIVINGROOM2.3,TONGFENGCISHUBIANLIANG,LIVINGROOM2.3,38.70,1.1,0.185,4.768E-003,0.170,5.721,Natural,0.000,1.0,0.606,3.600E-002,0.118,0.000,-100.00,100.00,-100.00,15.37,28.78,40.00
 ZoneVentilation Airflow Stats Nominal, LIVINGROOM2.4,TONGFENGCISHUBIANLIANG,LIVINGROOM2.4,38.70,1.1,0.185,4.768E-003,0.170,5.721,Natural,0.000,1.0,0.606,3.600E-002,0.118,0.000,-100.00,100.00,-100.00,15.37,28.78,40.00
 ZoneVentilation Airflow Stats Nominal, BEDROOM2.1,TONGFENGCISHUBIANLIANG,BEDROOM2.1,18.00,0.5,8.582E-002,4.768E-003,0.170,5.721,Natural,0.000,1.0,0.606,3.600E-002,0.118,0.000,-100.00,100.00,-100.00,15.37,28.78,40.00
 ZoneVentilation Airflow Stats Nominal, BEDROOM2.2,TONGFENGCISHUBIANLIANG,BEDROOM2.2,15.00,0.4,7.152E-002,4.768E-003,0.170,5.721,Natural,0.000,1.0,0.606,3.600E-002,0.118,0.000,-100.00,100.00,-100.00,15.37,28.78,40.00
 ZoneVentilation Airflow Stats Nominal, BEDROOM2.3,TONGFENGCISHUBIANLIANG,BEDROOM2.3,15.00,0.4,7.152E-002,4.768E-003,0.170,5.721,Natural,0.000,1.0,0.606,3.600E-002,0.118,0.000,-100.00,100.00,-100.00,15.37,28.78,40.00
 ZoneVentilation Airflow Stats Nominal, BEDROOM2.4,TONGFENGCISHUBIANLIANG,BEDROOM2.4,18.00,0.5,8.582E-002,4.768E-003,0.170,5.721,Natural,0.000,1.0,0.606,3.600E-002,0.118,0.000,-100.00,100.00,-100.00,15.37,28.78,40.00
 ZoneVentilation Airflow Stats Nominal, BEDROOM2.5,TONGFENGCISHUBIANLIANG,BEDROOM2.5,26.25,0.7,0.125,4.768E-003,0.170,5.721,Natural,0.000,1.0,0.606,3.600E-002,0.118,0.000,-100.00,100.00,-100.00,15.37,28.78,40.00
 ZoneVentilation Airflow Stats Nominal, BEDROOM2.6,TONGFENGCISHUBIANLIANG,BEDROOM2.6,26.25,0.7,0.125,4.768E-003,0.170,5.721,Natural,0.000,1.0,0.606,3.600E-002,0.118,0.000,-100.00,100.00,-100.00,15.37,28.78,40.00
 ZoneVentilation Airflow Stats Nominal, BEDROOM2.7,TONGFENGCISHUBIANLIANG,BEDROOM2.7,26.25,0.7,0.125,4.768E-003,0.170,5.721,Natural,0.000,1.0,0.606,3.600E-002,0.118,0.000,-100.00,100.00,-100.00,15.37,28.78,40.00
 ZoneVentilation Airflow Stats Nominal, BEDROOM2.8,TONGFENGCISHUBIANLIANG,BEDROOM2.8,26.25,0.7,0.125,4.768E-003,0.170,5.721,Natural,0.000,1.0,0.606,3.600E-002,0.118,0.000,-100.00,100.00,-100.00,15.37,28.78,40.00
 ZoneVentilation Airflow Stats Nominal, BEDROOM2.9,TONGFENGCISHUBIANLIANG,BEDROOM2.9,18.00,0.5,8.582E-002,4.768E-003,0.170,5.721,Natural,0.000,1.0,0.606,3.600E-002,0.118,0.000,-100.00,100.00,-100.00,15.37,28.78,40.00
 ZoneVentilation Airflow Stats Nominal, BEDROOM2.10,TONGFENGCISHUBIANLIANG,BEDROOM2.10,15.00,0.4,7.152E-002,4.768E-003,0.170,5.721,Natural,0.000,1.0,0.606,3.600E-002,0.118,0.000,-100.00,100.00,-100.00,15.37,28.78,40.00
 ZoneVentilation Airflow Stats Nominal, BEDROOM2.11,TONGFENGCISHUBIANLIANG,BEDROOM2.11,15.00,0.4,7.152E-002,4.768E-003,0.170,5.721,Natural,0.000,1.0,0.606,3.600E-002,0.118,0.000,-100.00,100.00,-100.00,15.37,28.78,40.00
 ZoneVentilation Airflow Stats Nominal, BEDROOM2.12,TONGFENGCISHUBIANLIANG,BEDROOM2.12,18.00,0.5,8.582E-002,4.768E-003,0.170,5.721,Natural,0.000,1.0,0.606,3.600E-002,0.118,0.000,-100.00,100.00,-100.00,15.37,28.78,40.00
 ZoneVentilation Airflow Stats Nominal, KITCHEN3.1,TONGFENGCISHUBIANLIANG,KITCHEN3.1,10.80,0.3,5.149E-002,4.768E-003,0.170,5.721,Natural,0.000,1.0,0.606,3.600E-002,0.118,0.000,-100.00,100.00,-100.00,15.37,28.78,40.00
 ZoneVentilation Airflow Stats Nominal, KITCHEN3.2,TONGFENGCISHUBIANLIANG,KITCHEN3.2,10.80,0.3,5.149E-002,4.768E-003,0.170,5.721,Natural,0.000,1.0,0.606,3.600E-002,0.118,0.000,-100.00,100.00,-100.00,15.37,28.78,40.00
 ZoneVentilation Airflow Stats Nominal, KITCHEN3.3,TONGFENGCISHUBIANLIANG,KITCHEN3.3,10.80,0.3,5.149E-002,4.768E-003,0.170,5.721,Natural,0.000,1.0,0.606,3.600E-002,0.118,0.000,-100.00,100.00,-100.00,15.37,28.78,40.00
 ZoneVentilation Airflow Stats Nominal, KITCHEN3.4,TONGFENGCISHUBIANLIANG,KITCHEN3.4,10.80,0.3,5.149E-002,4.768E-003,0.170,5.721,Natural,0.000,1.0,0.606,3.600E-002,0.118,0.000,-100.00,100.00,-100.00,15.37,28.78,40.00
 ZoneVentilation Airflow Stats Nominal, LIVINGROOM3.1,TONGFENGCISHUBIANLIANG,LIVINGROOM3.1,38.70,1.1,0.185,4.768E-003,0.170,5.721,Natural,0.000,1.0,0.606,3.600E-002,0.118,0.000,-100.00,100.00,-100.00,15.37,28.78,40.00
 ZoneVentilation Airflow Stats Nominal, LIVINGROOM3.2,TONGFENGCISHUBIANLIANG,LIVINGROOM3.2,38.70,1.1,0.185,4.768E-003,0.170,5.721,Natural,0.000,1.0,0.606,3.600E-002,0.118,0.000,-100.00,100.00,-100.00,15.37,28.78,40.00
 ZoneVentilation Airflow Stats Nominal, LIVINGROOM3.3,TONGFENGCISHUBIANLIANG,LIVINGROOM3.3,38.70,1.1,0.185,4.768E-003,0.170,5.721,Natural,0.000,1.0,0.606,3.600E-002,0.118,0.000,-100.00,100.00,-100.00,15.37,28.78,40.00
 ZoneVentilation Airflow Stats Nominal, LIVINGROOM3.4,TONGFENGCISHUBIANLIANG,LIVINGROOM3.4,38.70,1.1,0.185,4.768E-003,0.170,5.721,Natural,0.000,1.0,0.606,3.600E-002,0.118,0.000,-100.00,100.00,-100.00,15.37,28.78,40.00
 ZoneVentilation Airflow Stats Nominal, BEDROOM3.1,TONGFENGCISHUBIANLIANG,BEDROOM3.1,18.00,0.5,8.582E-002,4.768E-003,0.170,5.721,Natural,0.000,1.0,0.606,3.600E-002,0.118,0.000,-100.00,100.00,-100.00,15.37,28.78,40.00
 ZoneVentilation Airflow Stats Nominal, BEDROOM3.2,TONGFENGCISHUBIANLIANG,BEDROOM3.2,15.00,0.4,7.152E-002,4.768E-003,0.170,5.721,Natural,0.000,1.0,0.606,3.600E-002,0.118,0.000,-100.00,100.00,-100.00,15.37,28.78,40.00
 ZoneVentilation Airflow Stats Nominal, BEDROOM3.3,TONGFENGCISHUBIANLIANG,BEDROOM3.3,15.00,0.4,7.152E-002,4.768E-003,0.170,5.721,Natural,0.000,1.0,0.606,3.600E-002,0.118,0.000,-100.00,100.00,-100.00,15.37,28.78,40.00
 ZoneVentilation Airflow Stats Nominal, BEDROOM3.4,TONGFENGCISHUBIANLIANG,BEDROOM3.4,18.00,0.5,8.582E-002,4.768E-003,0.170,5.721,Natural,0.000,1.0,0.606,3.600E-002,0.118,0.000,-100.00,100.00,-100.00,15.37,28.78,40.00
 ZoneVentilation Airflow Stats Nominal, BEDROOM3.5,TONGFENGCISHUBIANLIANG,BEDROOM3.5,26.25,0.7,0.125,4.768E-003,0.170,5.721,Natural,0.000,1.0,0.606,3.600E-002,0.118,0.000,-100.00,100.00,-100.00,15.37,28.78,40.00
 ZoneVentilation Airflow Stats Nominal, BEDROOM3.6,TONGFENGCISHUBIANLIANG,BEDROOM3.6,26.25,0.7,0.125,4.768E-003,0.170,5.721,Natural,0.000,1.0,0.606,3.600E-002,0.118,0.000,-100.00,100.00,-100.00,15.37,28.78,40.00
 ZoneVentilation Airflow Stats Nominal, BEDROOM3.7,TONGFENGCISHUBIANLIANG,BEDROOM3.7,26.25,0.7,0.125,4.768E-003,0.170,5.721,Natural,0.000,1.0,0.606,3.600E-002,0.118,0.000,-100.00,100.00,-100.00,15.37,28.78,40.00
 ZoneVentilation Airflow Stats Nominal, BEDROOM3.8,TONGFENGCISHUBIANLIANG,BEDROOM3.8,26.25,0.7,0.125,4.768E-003,0.170,5.721,Natural,0.000,1.0,0.606,3.600E-002,0.118,0.000,-100.00,100.00,-100.00,15.37,28.78,40.00
 ZoneVentilation Airflow Stats Nominal, BEDROOM3.9,TONGFENGCISHUBIANLIANG,BEDROOM3.9,18.00,0.5,8.582E-002,4.768E-003,0.170,5.721,Natural,0.000,1.0,0.606,3.600E-002,0.118,0.000,-100.00,100.00,-100.00,15.37,28.78,40.00
 ZoneVentilation Airflow Stats Nominal, BEDROOM3.10,TONGFENGCISHUBIANLIANG,BEDROOM3.10,15.00,0.4,7.152E-002,4.768E-003,0.170,5.721,Natural,0.000,1.0,0.606,3.600E-002,0.118,0.000,-100.00,100.00,-100.00,15.37,28.78,40.00
 ZoneVentilation Airflow Stats Nominal, BEDROOM3.11,TONGFENGCISHUBIANLIANG,BEDROOM3.11,15.00,0.4,7.152E-002,4.768E-003,0.170,5.721,Natural,0.000,1.0,0.606,3.600E-002,0.118,0.000,-100.00,100.00,-100.00,15.37,28.78,40.00
 ZoneVentilation Airflow Stats Nominal, BEDROOM3.12,TONGFENGCISHUBIANLIANG,BEDROOM3.12,18.00,0.5,8.582E-002,4.768E-003,0.170,5.721,Natural,0.000,1.0,0.606,3.600E-002,0.118,0.000,-100.00,100.00,-100.00,15.37,28.78,40.00
! <AirFlow Model>, Simple
 AirFlow Model, Simple
! <RoomAir Model>, Zone Name, Mixing/Mundt/UCSDDV/UCSDCV/UCSDUFI/UCSDUFE/User Defined
RoomAir Model,KITCHEN1.1,Mixing/Well-Stirred
RoomAir Model,BEDROOM1.4,Mixing/Well-Stirred
RoomAir Model,KITCHEN1.2,Mixing/Well-Stirred
RoomAir Model,LIVINGROOM1.2,Mixing/Well-Stirred
RoomAir Model,BEDROOM1.7,Mixing/Well-Stirred
RoomAir Model,LIVINGROOM1.3,Mixing/Well-Stirred
RoomAir Model,BEDROOM1.9,Mixing/Well-Stirred
RoomAir Model,BEDROOM1.10,Mixing/Well-Stirred
RoomAir Model,BEDROOM1.11,Mixing/Well-Stirred
RoomAir Model,BEDROOM1.12,Mixing/Well-Stirred
RoomAir Model,STAIRCASE1.1,Mixing/Well-Stirred
RoomAir Model,KITCHEN1.3,Mixing/Well-Stirred
RoomAir Model,KITCHEN1.4,Mixing/Well-Stirred
RoomAir Model,LIVINGROOM1.4,Mixing/Well-Stirred
RoomAir Model,BEDROOM1.6,Mixing/Well-Stirred
RoomAir Model,BEDROOM1.8,Mixing/Well-Stirred
RoomAir Model,BEDROOM1.3,Mixing/Well-Stirred
RoomAir Model,BEDROOM1.2,Mixing/Well-Stirred
RoomAir Model,BEDROOM1.1,Mixing/Well-Stirred
RoomAir Model,LIVINGROOM1.1,Mixing/Well-Stirred
RoomAir Model,BEDROOM1.5,Mixing/Well-Stirred
RoomAir Model,LIVINGROOM2.4,Mixing/Well-Stirred
RoomAir Model,BEDROOM2.5,Mixing/Well-Stirred
RoomAir Model,LIVINGROOM2.1,Mixing/Well-Stirred
RoomAir Model,BEDROOM2.11,Mixing/Well-Stirred
RoomAir Model,BEDROOM2.10,Mixing/Well-Stirred
RoomAir Model,BEDROOM2.9,Mixing/Well-Stirred
RoomAir Model,LIVINGROOM2.3,Mixing/Well-Stirred
RoomAir Model,BEDROOM2.7,Mixing/Well-Stirred
RoomAir Model,LIVINGROOM2.2,Mixing/Well-Stirred
RoomAir Model,BEDROOM2.2,Mixing/Well-Stirred
RoomAir Model,BEDROOM2.8,Mixing/Well-Stirred
RoomAir Model,BEDROOM2.3,Mixing/Well-Stirred
RoomAir Model,BEDROOM2.1,Mixing/Well-Stirred
RoomAir Model,BEDROOM2.4,Mixing/Well-Stirred
RoomAir Model,BEDROOM2.6,Mixing/Well-Stirred
RoomAir Model,KITCHEN2.1,Mixing/Well-Stirred
RoomAir Model,KITCHEN2.4,Mixing/Well-Stirred
RoomAir Model,KITCHEN2.3,Mixing/Well-Stirred
RoomAir Model,STAIRCASE2.1,Mixing/Well-Stirred
RoomAir Model,BEDROOM2.12,Mixing/Well-Stirred
RoomAir Model,KITCHEN2.2,Mixing/Well-Stirred
RoomAir Model,LIVINGROOM3.4,Mixing/Well-Stirred
RoomAir Model,BEDROOM3.5,Mixing/Well-Stirred
RoomAir Model,LIVINGROOM3.1,Mixing/Well-Stirred
RoomAir Model,BEDROOM3.11,Mixing/Well-Stirred
RoomAir Model,BEDROOM3.10,Mixing/Well-Stirred
RoomAir Model,BEDROOM3.9,Mixing/Well-Stirred
RoomAir Model,LIVINGROOM3.3,Mixing/Well-Stirred
RoomAir Model,KITCHEN3.4,Mixing/Well-Stirred
RoomAir Model,KITCHEN3.1,Mixing/Well-Stirred
RoomAir Model,BEDROOM3.4,Mixing/Well-Stirred
RoomAir Model,BEDROOM3.6,Mixing/Well-Stirred
RoomAir Model,KITCHEN3.3,Mixing/Well-Stirred
RoomAir Model,KITCHEN3.2,Mixing/Well-Stirred
RoomAir Model,BEDROOM3.12,Mixing/Well-Stirred
RoomAir Model,STAIRCASE3.1,Mixing/Well-Stirred
RoomAir Model,BEDROOM3.3,Mixing/Well-Stirred
RoomAir Model,BEDROOM3.1,Mixing/Well-Stirred
RoomAir Model,BEDROOM3.8,Mixing/Well-Stirred
RoomAir Model,BEDROOM3.2,Mixing/Well-Stirred
RoomAir Model,LIVINGROOM3.2,Mixing/Well-Stirred
RoomAir Model,BEDROOM3.7,Mixing/Well-Stirred
! <AirflowNetwork Model:Control>, No Multizone or Distribution/Multizone with Distribution/Multizone without Distribution/Multizone with Distribution only during Fan Operation
AirflowNetwork Model:Control,NoMultizoneOrDistribution
! <Zone Volume Capacitance Multiplier>, Sensible Heat Capacity Multiplier, Moisture Capacity Multiplier, Carbon Dioxide Capacity Multiplier, Generic Contaminant Capacity Multiplier
Zone Volume Capacitance Multiplier,   1.000 ,   1.000,   1.000,   1.000
! <Environment>,Environment Name,Environment Type, Start Date, End Date, Start DayOfWeek, Duration {#days}, Source:Start DayOfWeek,  Use Daylight Saving, Use Holidays, Apply Weekend Holiday Rule,  Use Rain Values, Use Snow Values
! <Environment:Special Days>, Special Day Name, Special Day Type, Source, Start Date, Duration {#days}
! <Environment:Daylight Saving>, Daylight Saving Indicator, Source, Start Date, End Date
! <Environment:WarmupDays>, NumberofWarmupDays
Environment,RUNPERIOD,WeatherFileRunPeriod,01/01/2015,12/31/2016,Thursday,365,Use RunPeriod Specified Day,Yes,Yes,No,Yes,Yes
Environment:Daylight Saving,Yes,InputFile,03/08,11/01
Environment:WarmupDays, 12
! <Warmup Convergence Information>,Zone Name,Environment Type/Name,Average Warmup Temperature Difference {deltaC},Std Dev Warmup Temperature Difference {deltaC},Max Temperature Pass/Fail Convergence,Min Temperature Pass/Fail Convergence,Average Warmup Load Difference {W},Std Dev Warmup Load Difference {W},Heating Load Pass/Fail Convergence,Cooling Load Pass/Fail Convergence
 Warmup Convergence Information,KITCHEN1.1,RunPeriod: RUNPERIOD,7.3743970561E-002,6.5145251111E-002,Pass,Pass,0.0000000000,0.0000000000,Pass,Pass
 Warmup Convergence Information,BEDROOM1.4,RunPeriod: RUNPERIOD,0.2022845972,0.9343101565,Pass,Pass,2.0489801112E-002,0.1068601964,Pass,Pass
 Warmup Convergence Information,KITCHEN1.2,RunPeriod: RUNPERIOD,7.3763976478E-002,6.5124697211E-002,Pass,Pass,0.0000000000,0.0000000000,Pass,Pass
 Warmup Convergence Information,LIVINGROOM1.2,RunPeriod: RUNPERIOD,0.2038215694,0.8889415612,Pass,Pass,2.1521369668E-002,8.7313376008E-002,Pass,Pass
 Warmup Convergence Information,BEDROOM1.7,RunPeriod: RUNPERIOD,0.1918462203,0.8645309114,Pass,Pass,2.5139298161E-002,0.1325614914,Pass,Pass
 Warmup Convergence Information,LIVINGROOM1.3,RunPeriod: RUNPERIOD,0.2029509580,0.8812758159,Pass,Pass,2.1612957328E-002,8.7630603803E-002,Pass,Pass
 Warmup Convergence Information,BEDROOM1.9,RunPeriod: RUNPERIOD,0.2022855855,0.9348297452,Pass,Pass,2.0491325405E-002,0.1073441708,Pass,Pass
 Warmup Convergence Information,BEDROOM1.10,RunPeriod: RUNPERIOD,0.1951758356,0.9121321808,Pass,Pass,1.9407233163E-002,0.1005514738,Pass,Pass
 Warmup Convergence Information,BEDROOM1.11,RunPeriod: RUNPERIOD,0.1954324000,0.9134951564,Pass,Pass,1.9367596520E-002,0.1001381923,Pass,Pass
 Warmup Convergence Information,BEDROOM1.12,RunPeriod: RUNPERIOD,0.2031573778,0.9419250278,Pass,Pass,2.0303776413E-002,0.1058519646,Pass,Pass
 Warmup Convergence Information,STAIRCASE1.1,RunPeriod: RUNPERIOD,1.9105008545E-003,1.0909116689E-003,Pass,Pass,0.0000000000,0.0000000000,Pass,Pass
 Warmup Convergence Information,KITCHEN1.3,RunPeriod: RUNPERIOD,7.3765553563E-002,6.5101643793E-002,Pass,Pass,0.0000000000,0.0000000000,Pass,Pass
 Warmup Convergence Information,KITCHEN1.4,RunPeriod: RUNPERIOD,7.3785460842E-002,6.5104896238E-002,Pass,Pass,0.0000000000,0.0000000000,Pass,Pass
 Warmup Convergence Information,LIVINGROOM1.4,RunPeriod: RUNPERIOD,0.2040945626,0.8903361658,Pass,Pass,2.1508735514E-002,8.7308037195E-002,Pass,Pass
 Warmup Convergence Information,BEDROOM1.6,RunPeriod: RUNPERIOD,0.1927531772,0.8719547413,Pass,Pass,2.4515469126E-002,0.1297379857,Pass,Pass
 Warmup Convergence Information,BEDROOM1.8,RunPeriod: RUNPERIOD,0.1927817069,0.8721095221,Pass,Pass,2.4499500317E-002,0.1296622106,Pass,Pass
 Warmup Convergence Information,BEDROOM1.3,RunPeriod: RUNPERIOD,0.1944244795,0.9042892502,Pass,Pass,1.9597224324E-002,0.1017193925,Pass,Pass
 Warmup Convergence Information,BEDROOM1.2,RunPeriod: RUNPERIOD,0.1941722176,0.9029346260,Pass,Pass,1.9638624454E-002,0.1021357182,Pass,Pass
 Warmup Convergence Information,BEDROOM1.1,RunPeriod: RUNPERIOD,0.2014495058,0.9273190666,Pass,Pass,2.0682208475E-002,0.1082889768,Pass,Pass
 Warmup Convergence Information,LIVINGROOM1.1,RunPeriod: RUNPERIOD,0.2026821566,0.8798972891,Pass,Pass,2.1626320973E-002,8.7646019779E-002,Pass,Pass
 Warmup Convergence Information,BEDROOM1.5,RunPeriod: RUNPERIOD,0.1918183387,0.8643772242,Pass,Pass,2.5155361994E-002,0.1326382513,Pass,Pass
 Warmup Convergence Information,LIVINGROOM2.4,RunPeriod: RUNPERIOD,0.2103175470,0.9210593372,Pass,Pass,2.1194787982E-002,8.7219882132E-002,Pass,Pass
 Warmup Convergence Information,BEDROOM2.5,RunPeriod: RUNPERIOD,0.1966360605,0.8883964404,Pass,Pass,2.3667196318E-002,0.1252602478,Pass,Pass
 Warmup Convergence Information,LIVINGROOM2.1,RunPeriod: RUNPERIOD,0.2087368206,0.9099262975,Pass,Pass,2.1298820971E-002,8.7348985807E-002,Pass,Pass
 Warmup Convergence Information,BEDROOM2.11,RunPeriod: RUNPERIOD,0.2001745103,0.9360283438,Pass,Pass,1.9051638400E-002,9.5835902544E-002,Pass,Pass
 Warmup Convergence Information,BEDROOM2.10,RunPeriod: RUNPERIOD,0.1998587198,0.9346077960,Pass,Pass,1.9089608270E-002,9.6248964695E-002,Pass,Pass
 Warmup Convergence Information,BEDROOM2.9,RunPeriod: RUNPERIOD,0.2068965235,0.9555022390,Pass,Pass,2.0195390024E-002,0.1035374417,Pass,Pass
 Warmup Convergence Information,LIVINGROOM2.3,RunPeriod: RUNPERIOD,0.2090275352,0.9114066151,Pass,Pass,2.1287354136E-002,8.7359687320E-002,Pass,Pass
 Warmup Convergence Information,BEDROOM2.7,RunPeriod: RUNPERIOD,0.1966709340,0.8885582720,Pass,Pass,2.3651187710E-002,0.1251856433,Pass,Pass
 Warmup Convergence Information,LIVINGROOM2.2,RunPeriod: RUNPERIOD,0.2100201403,0.9195564473,Pass,Pass,2.1205527362E-002,8.7195140136E-002,Pass,Pass
 Warmup Convergence Information,BEDROOM2.2,RunPeriod: RUNPERIOD,0.1986673704,0.9251241518,Pass,Pass,1.9306747492E-002,9.7892783216E-002,Pass,Pass
 Warmup Convergence Information,BEDROOM2.8,RunPeriod: RUNPERIOD,0.1978381260,0.8964779985,Pass,Pass,2.3027219600E-002,0.1224290003,Pass,Pass
 Warmup Convergence Information,BEDROOM2.3,RunPeriod: RUNPERIOD,0.1989497163,0.9265346760,Pass,Pass,1.9267124559E-002,9.7477099150E-002,Pass,Pass
 Warmup Convergence Information,BEDROOM2.1,RunPeriod: RUNPERIOD,0.2059602180,0.9476495285,Pass,Pass,2.0375560976E-002,0.1045474638,Pass,Pass
 Warmup Convergence Information,BEDROOM2.4,RunPeriod: RUNPERIOD,0.2069077462,0.9549418803,Pass,Pass,2.0191356071E-002,0.1030582706,Pass,Pass
 Warmup Convergence Information,BEDROOM2.6,RunPeriod: RUNPERIOD,0.1978022421,0.8963154412,Pass,Pass,2.3043192820E-002,0.1225028475,Pass,Pass
 Warmup Convergence Information,KITCHEN2.1,RunPeriod: RUNPERIOD,7.5690527632E-002,6.4671034050E-002,Pass,Pass,0.0000000000,0.0000000000,Pass,Pass
 Warmup Convergence Information,KITCHEN2.4,RunPeriod: RUNPERIOD,7.5726869249E-002,6.4688219737E-002,Pass,Pass,0.0000000000,0.0000000000,Pass,Pass
 Warmup Convergence Information,KITCHEN2.3,RunPeriod: RUNPERIOD,7.5709312637E-002,6.4659676868E-002,Pass,Pass,0.0000000000,0.0000000000,Pass,Pass
 Warmup Convergence Information,STAIRCASE2.1,RunPeriod: RUNPERIOD,2.1792838216E-003,1.3319706755E-003,Pass,Pass,0.0000000000,0.0000000000,Pass,Pass
 Warmup Convergence Information,BEDROOM2.12,RunPeriod: RUNPERIOD,0.2078760407,0.9629209589,Pass,Pass,2.0014871618E-002,0.1019772665,Pass,Pass
 Warmup Convergence Information,KITCHEN2.2,RunPeriod: RUNPERIOD,7.5707923185E-002,6.4696888885E-002,Pass,Pass,0.0000000000,0.0000000000,Pass,Pass
 Warmup Convergence Information,LIVINGROOM3.4,RunPeriod: RUNPERIOD,0.2163450616,0.9551006172,Pass,Pass,1.9330894216E-002,8.3592923618E-002,Pass,Pass
 Warmup Convergence Information,BEDROOM3.5,RunPeriod: RUNPERIOD,0.2036981848,0.9234646695,Pass,Pass,2.1222055096E-002,0.1126544906,Pass,Pass
 Warmup Convergence Information,LIVINGROOM3.1,RunPeriod: RUNPERIOD,0.2148899749,0.9449888831,Pass,Pass,1.9411884871E-002,8.3615996734E-002,Pass,Pass
 Warmup Convergence Information,BEDROOM3.11,RunPeriod: RUNPERIOD,0.2052538325,0.9627768402,Pass,Pass,1.8182943744E-002,8.8302920124E-002,Pass,Pass
 Warmup Convergence Information,BEDROOM3.10,RunPeriod: RUNPERIOD,0.2049395621,0.9614673108,Pass,Pass,1.8213337135E-002,8.8644951123E-002,Pass,Pass
 Warmup Convergence Information,BEDROOM3.9,RunPeriod: RUNPERIOD,0.2115269775,0.9793893560,Pass,Pass,1.9383195588E-002,9.7724052898E-002,Pass,Pass
 Warmup Convergence Information,LIVINGROOM3.3,RunPeriod: RUNPERIOD,0.2151629729,0.9463768767,Pass,Pass,1.9403210153E-002,8.3633174171E-002,Pass,Pass
 Warmup Convergence Information,KITCHEN3.4,RunPeriod: RUNPERIOD,7.5436129477E-002,6.3486454215E-002,Pass,Pass,0.0000000000,0.0000000000,Pass,Pass
 Warmup Convergence Information,KITCHEN3.1,RunPeriod: RUNPERIOD,7.5390746444E-002,6.3451188280E-002,Pass,Pass,0.0000000000,0.0000000000,Pass,Pass
 Warmup Convergence Information,BEDROOM3.4,RunPeriod: RUNPERIOD,0.2114842681,0.9786036438,Pass,Pass,1.9359174740E-002,9.7160852231E-002,Pass,Pass
 Warmup Convergence Information,BEDROOM3.6,RunPeriod: RUNPERIOD,0.2048843780,0.9308994162,Pass,Pass,2.0969486474E-002,0.1103689812,Pass,Pass
