Program Version,EnergyPlus, Version 8.7.0-78a111df4a, YMD=2019.05.28 05:48
! <Version>, Version ID
 Version, 8.4
! <Timesteps per Hour>, #TimeSteps, Minutes per TimeStep {minutes}
 Timesteps per Hour,  4, 15
! <System Convergence Limits>, Minimum System TimeStep {minutes}, Max HVAC Iterations, Minimum Plant Iterations, Maximum Plant Iterations
 System Convergence Limits, 1, 20, 2, 8
! <Simulation Control>, Do Zone Sizing, Do System Sizing, Do Plant Sizing, Do Design Days, Do Weather Simulation, Do HVAC Sizing Simulation
 Simulation Control, No, No, No, Yes, Yes, No
! <Output Reporting Tolerances>, Tolerance for Time Heating Setpoint Not Met, Tolerance for Zone Cooling Setpoint Not Met Time
 Output Reporting Tolerances, 0.200, 0.200, 
! <Site:GroundTemperature:BuildingSurface>,Jan{C},Feb{C},Mar{C},Apr{C},May{C},Jun{C},Jul{C},Aug{C},Sep{C},Oct{C},Nov{C},Dec{C}
 Site:GroundTemperature:BuildingSurface,  17.73,  17.58,  14.99,  15.72,  19.24,  24.78,  25.36,  25.42,  25.45,  23.67,  19.98,  19.57
! <Site:GroundTemperature:FCfactorMethod>,Jan{C},Feb{C},Mar{C},Apr{C},May{C},Jun{C},Jul{C},Aug{C},Sep{C},Oct{C},Nov{C},Dec{C}
 Site:GroundTemperature:FCfactorMethod,  13.31,  10.23,   9.39,  10.12,  14.28,  18.95,  23.34,  26.51,  27.44,  25.95,  22.35,  17.82
! <Site:GroundTemperature:Shallow>,Jan{C},Feb{C},Mar{C},Apr{C},May{C},Jun{C},Jul{C},Aug{C},Sep{C},Oct{C},Nov{C},Dec{C}
 Site:GroundTemperature:Shallow,  13.00,  13.00,  13.00,  13.00,  13.00,  13.00,  13.00,  13.00,  13.00,  13.00,  13.00,  13.00
! <Site:GroundTemperature:Deep>,Jan{C},Feb{C},Mar{C},Apr{C},May{C},Jun{C},Jul{C},Aug{C},Sep{C},Oct{C},Nov{C},Dec{C}
 Site:GroundTemperature:Deep,  16.00,  16.00,  16.00,  16.00,  16.00,  16.00,  16.00,  16.00,  16.00,  16.00,  16.00,  16.00
! <Site:GroundReflectance>,Jan{dimensionless},Feb{dimensionless},Mar{dimensionless},Apr{dimensionless},May{dimensionless},Jun{dimensionless},Jul{dimensionless},Aug{dimensionless},Sep{dimensionless},Oct{dimensionless},Nov{dimensionless},Dec{dimensionless}
 Site:GroundReflectance,  0.20,  0.20,  0.20,  0.20,  0.20,  0.20,  0.20,  0.20,  0.20,  0.20,  0.20,  0.20
! <Site:GroundReflectance:SnowModifier>, Normal, Daylighting {dimensionless}
 Site:GroundReflectance:SnowModifier,   1.000,   1.000
! <Site:GroundReflectance:Snow>,Jan{dimensionless},Feb{dimensionless},Mar{dimensionless},Apr{dimensionless},May{dimensionless},Jun{dimensionless},Jul{dimensionless},Aug{dimensionless},Sep{dimensionless},Oct{dimensionless},Nov{dimensionless},Dec{dimensionless}
 Site:GroundReflectance:Snow,  0.20,  0.20,  0.20,  0.20,  0.20,  0.20,  0.20,  0.20,  0.20,  0.20,  0.20,  0.20
! <Site:GroundReflectance:Snow:Daylighting>,Jan{dimensionless},Feb{dimensionless},Mar{dimensionless},Apr{dimensionless},May{dimensionless},Jun{dimensionless},Jul{dimensionless},Aug{dimensionless},Sep{dimensionless},Oct{dimensionless},Nov{dimensionless},Dec{dimensionless}
 Site:GroundReflectance:Snow:Daylighting,  0.20,  0.20,  0.20,  0.20,  0.20,  0.20,  0.20,  0.20,  0.20,  0.20,  0.20,  0.20
! <Environment:Weather Station>,Wind Sensor Height Above Ground {m},Wind Speed Profile Exponent {},Wind Speed Profile Boundary Layer Thickness {m},Air Temperature Sensor Height Above Ground {m},Wind Speed Modifier Coefficient-Internal,Temperature Modifier Coefficient-Internal
Environment:Weather Station,10.000,0.140,270.000,1.500,1.586,9.750E-003
! <Site:Location>, Location Name, Latitude {N+/S- Deg}, Longitude {E+/W- Deg},  Time Zone Number {GMT+/-}, Elevation {m},  Standard Pressure at Elevation {Pa}, Standard RhoAir at Elevation
Site:Location,Chongqing Shapingba Chongqing CHN CSWD WMO#=575160,29.58,106.47,8.00,259.10,98251,1.1678
! <Building Information>, Building Name,North Axis {deg},Terrain,  Loads Convergence Tolerance Value,Temperature Convergence Tolerance Value,  Solar Distribution,Maximum Number of Warmup Days,Minimum Number of Warmup Days
 Building Information,3cengzhuzhai,244.279,City,4.00000E-002,0.40000,FullInteriorAndExterior,25,6
! <Inside Convection Algorithm>, Algorithm {Simple | TARP | CeilingDiffuser | AdaptiveConvectionAlgorithm}
Inside Convection Algorithm,AdaptiveConvectionAlgorithm
! <Outside Convection Algorithm>, Algorithm {SimpleCombined | TARP | MoWitt | DOE-2 | AdaptiveConvectionAlgorithm}
Outside Convection Algorithm,AdaptiveConvectionAlgorithm
! <Sky Radiance Distribution>, Value {Anisotropic}
Sky Radiance Distribution,Anisotropic
! <Zone Air Solution Algorithm>, Value {ThirdOrderBackwardDifference | AnalyticalSolution | EulerMethod}
 Zone Air Solution Algorithm, ThirdOrderBackwardDifference
! <Zone Air Carbon Dioxide Balance Simulation>, Simulation {Yes/No}, Carbon Dioxide Concentration
 Zone Air Carbon Dioxide Balance Simulation, No,N/A
! <Zone Air Generic Contaminant Balance Simulation>, Simulation {Yes/No}, Generic Contaminant Concentration
 Zone Air Generic Contaminant Balance Simulation, No,N/A
! <Zone Air Mass Flow Balance Simulation>, Enforce Mass Balance, Adjust Zone Mixing, Adjust Zone Infiltration {AddInfiltration | AdjustInfiltration | None}, Infiltration Zones {MixingSourceZonesOnly | AllZones}
 Zone Air Mass Flow Balance Simulation, No,N/A,N/A,N/A
! <Environment:Site Atmospheric Variation>,Wind Speed Profile Exponent {},Wind Speed Profile Boundary Layer Thickness {m},Air Temperature Gradient Coefficient {K/m}
Environment:Site Atmospheric Variation,0.330,460.000,6.500000E-003
! <Surface Geometry>,Starting Corner,Vertex Input Direction,Coordinate System,Daylight Reference Point Coordinate System,Rectangular (Simple) Surface Coordinate System
 Surface Geometry,UpperLeftCorner,Counterclockwise,RelativeCoordinateSystem,RelativeCoordinateSystem,RelativeToZoneOrigin
! <Surface Heat Transfer Algorithm>, Value {CTF - ConductionTransferFunction | EMPD - MoisturePenetrationDepthConductionTransferFunction | CondFD - ConductionFiniteDifference | HAMT - CombinedHeatAndMoistureFiniteElement} - Description,Inside Surface Max Temperature Limit{C}, Surface Convection Coefficient Lower Limit {W/m2-K}, Surface Convection Coefficient Upper Limit {W/m2-K}
Surface Heat Transfer Algorithm, CTF - ConductionTransferFunction,200,0.10,1000.0
! <Shading Summary>, Number of Fixed Detached Shades, Number of Building Detached Shades, Number of Attached Shades
 Shading Summary,0,0,0
! <Zone Summary>, Number of Zones, Number of Zone Surfaces, Number of SubSurfaces
 Zone Summary,63,498,60
! <Zone Information>,Zone Name,North Axis {deg},Origin X-Coordinate {m},Origin Y-Coordinate {m},Origin Z-Coordinate {m},Centroid X-Coordinate {m},Centroid Y-Coordinate {m},Centroid Z-Coordinate {m},Type,Zone Multiplier,Zone List Multiplier,Minimum X {m},Maximum X {m},Minimum Y {m},Maximum Y {m},Minimum Z {m},Maximum Z {m},Ceiling Height {m},Volume {m3},Zone Inside Convection Algorithm {Simple-Detailed-CeilingDiffuser-TrombeWall},Zone Outside Convection Algorithm {Simple-Detailed-Tarp-MoWitt-DOE-2-BLAST}, Floor Area {m2},Exterior Gross Wall Area {m2},Exterior Net Wall Area {m2},Exterior Window Area {m2}, Number of Surfaces, Number of SubSurfaces, Number of Shading SubSurfaces,  Part of Total Building Area
 Zone Information, KITCHEN1.1,0.0,8.60,3.00,0.00,-8.98,6.55,1.50,1,1,1,-11.53,-6.44,4.49,8.61,0.00,3.00,3.00,32.40,AdaptiveConvectionAlgorithm,AdaptiveConvectionAlgorithm,10.80,0.00,0.00,0.00,6,0,0,Yes
 Zone Information, BEDROOM1.4,0.0,16.00,0.00,0.00,-9.60,16.47,1.50,1,1,1,-12.25,-6.94,13.11,19.82,0.00,3.00,3.00,54.00,AdaptiveConvectionAlgorithm,AdaptiveConvectionAlgorithm,18.00,27.00,24.59,2.41,6,2,0,Yes
 Zone Information, KITCHEN1.2,0.0,11.00,3.00,0.00,-10.02,8.71,1.50,1,1,1,-12.57,-7.48,6.66,10.77,0.00,3.00,3.00,32.40,AdaptiveConvectionAlgorithm,AdaptiveConvectionAlgorithm,10.80,0.00,0.00,0.00,6,0,0,Yes
 Zone Information, LIVINGROOM1.2,0.0,13.50,3.00,0.00,-12.41,13.67,1.50,1,1,1,-16.30,-8.52,8.82,18.52,0.00,3.00,3.00,116.10,AdaptiveConvectionAlgorithm,AdaptiveConvectionAlgorithm,38.70,13.50,12.61,0.89,8,1,0,Yes
 Zone Information, BEDROOM1.7,0.0,0.00,11.00,0.00,-13.11,-2.16,1.50,1,1,1,-16.32,-9.91,-6.29,1.98,0.00,3.00,3.00,78.75,AdaptiveConvectionAlgorithm,AdaptiveConvectionAlgorithm,26.25,10.50,8.23,2.27,6,1,0,Yes
 Zone Information, LIVINGROOM1.3,0.0,0.00,14.50,0.00,-16.96,-3.40,1.50,1,1,1,-20.85,-13.06,-8.25,1.45,0.00,3.00,3.00,116.10,AdaptiveConvectionAlgorithm,AdaptiveConvectionAlgorithm,38.70,13.50,10.58,2.92,8,1,0,Yes
 Zone Information, BEDROOM1.9,0.0,0.00,19.00,0.00,-19.77,-6.19,1.50,1,1,1,-22.42,-17.12,-9.55,-2.84,0.00,3.00,3.00,54.00,AdaptiveConvectionAlgorithm,AdaptiveConvectionAlgorithm,18.00,27.00,23.99,3.01,6,2,0,Yes
 Zone Information, BEDROOM1.10,0.0,6.00,19.00,0.00,-22.16,-1.24,1.50,1,1,1,-24.59,-19.72,-4.14,1.66,0.00,3.00,3.00,45.00,AdaptiveConvectionAlgorithm,AdaptiveConvectionAlgorithm,15.00,15.00,13.94,1.06,7,1,0,Yes
 Zone Information, BEDROOM1.11,0.0,11.00,19.00,0.00,-24.33,3.27,1.50,1,1,1,-26.76,-21.89,0.36,6.17,0.00,3.00,3.00,45.00,AdaptiveConvectionAlgorithm,AdaptiveConvectionAlgorithm,15.00,15.00,13.94,1.06,7,1,0,Yes
 Zone Information, BEDROOM1.12,0.0,16.00,19.00,0.00,-26.71,8.22,1.50,1,1,1,-29.37,-24.06,4.87,11.57,0.00,3.00,3.00,54.00,AdaptiveConvectionAlgorithm,AdaptiveConvectionAlgorithm,18.00,27.00,25.34,1.66,6,2,0,Yes
 Zone Information, STAIRCASE1.1,0.0,7.50,7.50,0.00,-14.68,5.14,1.50,1,1,1,-19.36,-10.01,0.46,9.81,0.00,3.00,3.00,147.00,AdaptiveConvectionAlgorithm,AdaptiveConvectionAlgorithm,49.00,0.00,0.00,0.00,14,0,0,Yes
 Zone Information, KITCHEN1.3,0.0,8.60,14.50,0.00,-19.34,1.56,1.50,1,1,1,-21.89,-16.80,-0.50,3.62,0.00,3.00,3.00,32.40,AdaptiveConvectionAlgorithm,AdaptiveConvectionAlgorithm,10.80,0.00,0.00,0.00,6,0,0,Yes
 Zone Information, KITCHEN1.4,0.0,11.00,14.50,0.00,-20.39,3.72,1.50,1,1,1,-22.93,-17.84,1.66,5.78,0.00,3.00,3.00,32.40,AdaptiveConvectionAlgorithm,AdaptiveConvectionAlgorithm,10.80,0.00,0.00,0.00,6,0,0,Yes
 Zone Information, LIVINGROOM1.4,0.0,13.40,14.50,0.00,-22.77,8.68,1.50,1,1,1,-26.67,-18.88,3.83,13.53,0.00,3.00,3.00,116.10,AdaptiveConvectionAlgorithm,AdaptiveConvectionAlgorithm,38.70,13.50,12.61,0.89,8,1,0,Yes
 Zone Information, BEDROOM1.6,0.0,14.50,7.50,0.00,-16.25,12.43,1.50,1,1,1,-19.46,-13.05,8.29,16.57,0.00,3.00,3.00,78.75,AdaptiveConvectionAlgorithm,AdaptiveConvectionAlgorithm,26.25,10.50,9.81,0.69,6,1,0,Yes
 Zone Information, BEDROOM1.8,0.0,14.50,11.00,0.00,-19.41,10.91,1.50,1,1,1,-22.61,-16.20,6.77,15.05,0.00,3.00,3.00,78.75,AdaptiveConvectionAlgorithm,AdaptiveConvectionAlgorithm,26.25,10.50,9.81,0.69,6,1,0,Yes
 Zone Information, BEDROOM1.3,0.0,11.00,0.00,0.00,-7.21,11.51,1.50,1,1,1,-9.65,-4.77,8.61,14.41,0.00,3.00,3.00,45.00,AdaptiveConvectionAlgorithm,AdaptiveConvectionAlgorithm,15.00,15.00,13.19,1.81,7,1,0,Yes
 Zone Information, BEDROOM1.2,0.0,6.00,0.00,0.00,-5.04,7.01,1.50,1,1,1,-7.48,-2.60,4.10,9.91,0.00,3.00,3.00,45.00,AdaptiveConvectionAlgorithm,AdaptiveConvectionAlgorithm,15.00,15.00,13.19,1.81,7,1,0,Yes
 Zone Information, BEDROOM1.1,0.0,0.00,0.00,0.00,-2.65,2.05,1.50,1,1,1,-5.31,0.00,-1.30,5.41,0.00,3.00,3.00,54.00,AdaptiveConvectionAlgorithm,AdaptiveConvectionAlgorithm,18.00,27.00,23.24,3.76,6,2,0,Yes
 Zone Information, LIVINGROOM1.1,0.0,0.00,3.00,0.00,-6.60,1.60,1.50,1,1,1,-10.49,-2.70,-3.25,6.45,0.00,3.00,3.00,116.10,AdaptiveConvectionAlgorithm,AdaptiveConvectionAlgorithm,38.70,13.50,10.58,2.92,8,1,0,Yes
 Zone Information, BEDROOM1.5,0.0,0.00,7.50,0.00,-9.96,-0.64,1.50,1,1,1,-13.17,-6.76,-4.77,3.50,0.00,3.00,3.00,78.75,AdaptiveConvectionAlgorithm,AdaptiveConvectionAlgorithm,26.25,10.50,8.23,2.27,6,1,0,Yes
 Zone Information, LIVINGROOM2.4,0.0,13.40,14.50,0.00,-22.77,8.68,4.50,1,1,1,-26.67,-18.88,3.83,13.53,3.00,6.00,3.00,116.10,AdaptiveConvectionAlgorithm,AdaptiveConvectionAlgorithm,38.70,13.50,12.61,0.89,8,1,0,Yes
 Zone Information, BEDROOM2.5,0.0,0.00,7.50,0.00,-9.96,-0.64,4.50,1,1,1,-13.17,-6.76,-4.77,3.50,3.00,6.00,3.00,78.75,AdaptiveConvectionAlgorithm,AdaptiveConvectionAlgorithm,26.25,10.50,8.23,2.27,6,1,0,Yes
 Zone Information, LIVINGROOM2.1,0.0,0.00,3.00,0.00,-6.60,1.60,4.50,1,1,1,-10.49,-2.70,-3.25,6.45,3.00,6.00,3.00,116.10,AdaptiveConvectionAlgorithm,AdaptiveConvectionAlgorithm,38.70,13.50,10.58,2.92,8,1,0,Yes
 Zone Information, BEDROOM2.11,0.0,11.00,19.00,0.00,-24.33,3.27,4.50,1,1,1,-26.76,-21.89,0.36,6.17,3.00,6.00,3.00,45.00,AdaptiveConvectionAlgorithm,AdaptiveConvectionAlgorithm,15.00,15.00,13.94,1.06,7,1,0,Yes
 Zone Information, BEDROOM2.10,0.0,6.00,19.00,0.00,-22.16,-1.24,4.50,1,1,1,-24.59,-19.72,-4.14,1.66,3.00,6.00,3.00,45.00,AdaptiveConvectionAlgorithm,AdaptiveConvectionAlgorithm,15.00,15.00,13.94,1.06,7,1,0,Yes
 Zone Information, BEDROOM2.9,0.0,0.00,19.00,0.00,-19.77,-6.19,4.50,1,1,1,-22.42,-17.12,-9.55,-2.84,3.00,6.00,3.00,54.00,AdaptiveConvectionAlgorithm,AdaptiveConvectionAlgorithm,18.00,27.00,23.99,3.01,6,2,0,Yes
 Zone Information, LIVINGROOM2.3,0.0,0.00,14.50,0.00,-16.96,-3.40,4.50,1,1,1,-20.85,-13.06,-8.25,1.45,3.00,6.00,3.00,116.10,AdaptiveConvectionAlgorithm,AdaptiveConvectionAlgorithm,38.70,13.50,10.58,2.92,8,1,0,Yes
 Zone Information, BEDROOM2.7,0.0,0.00,11.00,0.00,-13.11,-2.16,4.50,1,1,1,-16.32,-9.91,-6.29,1.98,3.00,6.00,3.00,78.75,AdaptiveConvectionAlgorithm,AdaptiveConvectionAlgorithm,26.25,10.50,8.23,2.27,6,1,0,Yes
 Zone Information, LIVINGROOM2.2,0.0,13.50,3.00,0.00,-12.41,13.67,4.50,1,1,1,-16.30,-8.52,8.82,18.52,3.00,6.00,3.00,116.10,AdaptiveConvectionAlgorithm,AdaptiveConvectionAlgorithm,38.70,13.50,12.61,0.89,8,1,0,Yes
 Zone Information, BEDROOM2.2,0.0,6.00,0.00,0.00,-5.04,7.01,4.50,1,1,1,-7.48,-2.60,4.10,10.00,3.00,6.00,3.00,45.00,AdaptiveConvectionAlgorithm,AdaptiveConvectionAlgorithm,15.00,15.00,13.19,1.81,7,1,0,Yes
 Zone Information, BEDROOM2.8,0.0,14.50,11.00,0.00,-19.41,10.91,4.50,1,1,1,-22.61,-16.20,6.77,15.05,3.00,6.00,3.00,78.75,AdaptiveConvectionAlgorithm,AdaptiveConvectionAlgorithm,26.25,10.50,9.81,0.69,6,1,0,Yes
 Zone Information, BEDROOM2.3,0.0,11.00,0.00,0.00,-7.21,11.51,4.50,1,1,1,-9.65,-4.77,8.61,14.51,3.00,6.00,3.00,45.00,AdaptiveConvectionAlgorithm,AdaptiveConvectionAlgorithm,15.00,15.00,13.19,1.81,7,1,0,Yes
 Zone Information, BEDROOM2.1,0.0,0.00,0.00,0.00,-2.65,2.05,4.50,1,1,1,-5.31,0.00,-1.30,5.41,3.00,6.00,3.00,54.00,AdaptiveConvectionAlgorithm,AdaptiveConvectionAlgorithm,18.00,27.00,23.24,3.76,6,2,0,Yes
 Zone Information, BEDROOM2.4,0.0,16.00,0.00,0.00,-9.60,16.47,4.50,1,1,1,-12.25,-6.94,13.11,19.82,3.00,6.00,3.00,54.00,AdaptiveConvectionAlgorithm,AdaptiveConvectionAlgorithm,18.00,27.00,24.59,2.41,6,2,0,Yes
 Zone Information, BEDROOM2.6,0.0,14.50,7.50,0.00,-16.25,12.43,4.50,1,1,1,-19.46,-13.05,8.29,16.57,3.00,6.00,3.00,78.75,AdaptiveConvectionAlgorithm,AdaptiveConvectionAlgorithm,26.25,10.50,9.81,0.69,6,1,0,Yes
 Zone Information, KITCHEN2.1,0.0,8.60,3.00,0.00,-8.98,6.55,4.50,1,1,1,-11.53,-6.44,4.49,8.61,3.00,6.00,3.00,32.40,AdaptiveConvectionAlgorithm,AdaptiveConvectionAlgorithm,10.80,0.00,0.00,0.00,6,0,0,Yes
 Zone Information, KITCHEN2.4,0.0,11.00,14.50,0.00,-20.39,3.72,4.50,1,1,1,-22.93,-17.84,1.66,5.78,3.00,6.00,3.00,32.40,AdaptiveConvectionAlgorithm,AdaptiveConvectionAlgorithm,10.80,0.00,0.00,0.00,6,0,0,Yes
 Zone Information, KITCHEN2.3,0.0,8.60,14.50,0.00,-19.34,1.56,4.50,1,1,1,-21.89,-16.80,-0.50,3.62,3.00,6.00,3.00,32.40,AdaptiveConvectionAlgorithm,AdaptiveConvectionAlgorithm,10.80,0.00,0.00,0.00,6,0,0,Yes
 Zone Information, STAIRCASE2.1,0.0,7.50,7.50,0.00,-14.68,5.14,4.50,1,1,1,-19.36,-10.01,0.46,9.81,3.00,6.00,3.00,147.00,AdaptiveConvectionAlgorithm,AdaptiveConvectionAlgorithm,49.00,0.00,0.00,0.00,14,0,0,Yes
 Zone Information, BEDROOM2.12,0.0,16.00,19.00,0.00,-26.71,8.22,4.50,1,1,1,-29.37,-24.06,4.87,11.57,3.00,6.00,3.00,54.00,AdaptiveConvectionAlgorithm,AdaptiveConvectionAlgorithm,18.00,27.00,25.34,1.66,6,2,0,Yes
 Zone Information, KITCHEN2.2,0.0,11.00,3.00,0.00,-10.02,8.71,4.50,1,1,1,-12.57,-7.48,6.66,10.77,3.00,6.00,3.00,32.40,AdaptiveConvectionAlgorithm,AdaptiveConvectionAlgorithm,10.80,0.00,0.00,0.00,6,0,0,Yes
 Zone Information, LIVINGROOM3.4,0.0,13.40,14.50,0.00,-22.77,8.68,7.50,1,1,1,-26.67,-18.88,3.83,13.53,6.00,9.00,3.00,116.10,AdaptiveConvectionAlgorithm,AdaptiveConvectionAlgorithm,38.70,13.50,12.61,0.89,8,1,0,Yes
 Zone Information, BEDROOM3.5,0.0,0.00,7.50,0.00,-9.96,-0.64,7.50,1,1,1,-13.17,-6.76,-4.77,3.50,6.00,9.00,3.00,78.75,AdaptiveConvectionAlgorithm,AdaptiveConvectionAlgorithm,26.25,10.50,8.23,2.27,6,1,0,Yes
 Zone Information, LIVINGROOM3.1,0.0,0.00,3.00,0.00,-6.60,1.60,7.50,1,1,1,-10.49,-2.70,-3.25,6.45,6.00,9.00,3.00,116.10,AdaptiveConvectionAlgorithm,AdaptiveConvectionAlgorithm,38.70,13.50,10.58,2.92,8,1,0,Yes
 Zone Information, BEDROOM3.11,0.0,11.00,19.00,0.00,-24.33,3.27,7.50,1,1,1,-28.00,-21.89,0.36,7.44,6.00,9.00,3.00,45.00,AdaptiveConvectionAlgorithm,AdaptiveConvectionAlgorithm,15.00,15.00,13.94,1.06,7,1,0,Yes
 Zone Information, BEDROOM3.10,0.0,6.00,19.00,0.00,-22.16,-1.24,7.50,1,1,1,-25.83,-19.72,-4.14,2.93,6.00,9.00,3.00,45.00,AdaptiveConvectionAlgorithm,AdaptiveConvectionAlgorithm,15.00,15.00,13.94,1.06,7,1,0,Yes
 Zone Information, BEDROOM3.9,0.0,0.00,19.00,0.00,-19.77,-6.19,7.50,1,1,1,-23.23,-17.12,-9.55,-2.47,6.00,9.00,3.00,54.00,AdaptiveConvectionAlgorithm,AdaptiveConvectionAlgorithm,18.00,27.00,23.99,3.01,6,2,0,Yes
 Zone Information, LIVINGROOM3.3,0.0,0.00,14.50,0.00,-16.96,-3.40,7.50,1,1,1,-20.85,-13.06,-8.25,1.45,6.00,9.00,3.00,116.10,AdaptiveConvectionAlgorithm,AdaptiveConvectionAlgorithm,38.70,13.50,10.58,2.92,8,1,0,Yes
 Zone Information, KITCHEN3.4,0.0,11.00,14.50,0.00,-20.39,3.72,7.50,1,1,1,-22.93,-17.84,1.66,5.78,6.00,9.00,3.00,32.40,AdaptiveConvectionAlgorithm,AdaptiveConvectionAlgorithm,10.80,0.00,0.00,0.00,6,0,0,Yes
 Zone Information, KITCHEN3.1,0.0,8.60,3.00,0.00,-8.98,6.55,7.50,1,1,1,-11.53,-6.44,4.49,8.61,6.00,9.00,3.00,32.40,AdaptiveConvectionAlgorithm,AdaptiveConvectionAlgorithm,10.80,0.00,0.00,0.00,6,0,0,Yes
 Zone Information, BEDROOM3.4,0.0,16.00,0.00,0.00,-9.60,16.47,7.50,1,1,1,-12.25,-6.94,13.11,21.72,6.00,9.00,3.00,54.00,AdaptiveConvectionAlgorithm,AdaptiveConvectionAlgorithm,18.00,27.00,24.59,2.41,6,2,0,Yes
 Zone Information, BEDROOM3.6,0.0,14.50,7.50,0.00,-16.25,12.43,7.50,1,1,1,-19.46,-13.05,8.29,16.57,6.00,9.00,3.00,78.75,AdaptiveConvectionAlgorithm,AdaptiveConvectionAlgorithm,26.25,10.50,9.81,0.69,6,1,0,Yes
 Zone Information, KITCHEN3.3,0.0,8.60,14.50,0.00,-19.34,1.56,7.50,1,1,1,-21.89,-16.80,-0.50,3.62,6.00,9.00,3.00,32.40,AdaptiveConvectionAlgorithm,AdaptiveConvectionAlgorithm,10.80,0.00,0.00,0.00,6,0,0,Yes
 Zone Information, KITCHEN3.2,0.0,11.00,3.00,0.00,-10.02,8.71,7.50,1,1,1,-12.57,-7.48,6.66,10.77,6.00,9.00,3.00,32.40,AdaptiveConvectionAlgorithm,AdaptiveConvectionAlgorithm,10.80,0.00,0.00,0.00,6,0,0,Yes
 Zone Information, BEDROOM3.12,0.0,16.00,19.00,0.00,-26.71,8.22,7.50,1,1,1,-30.17,-24.06,4.87,11.94,6.00,9.00,3.00,54.00,AdaptiveConvectionAlgorithm,AdaptiveConvectionAlgorithm,18.00,27.00,25.34,1.66,6,2,0,Yes
 Zone Information, STAIRCASE3.1,0.0,7.50,7.50,0.00,-14.68,5.14,7.50,1,1,1,-19.36,-10.01,0.46,9.81,6.00,9.00,3.00,147.00,AdaptiveConvectionAlgorithm,AdaptiveConvectionAlgorithm,49.00,0.00,0.00,0.00,14,0,0,Yes
 Zone Information, BEDROOM3.3,0.0,11.00,0.00,0.00,-7.21,11.51,7.50,1,1,1,-9.65,-4.77,8.61,17.21,6.00,9.00,3.00,45.00,AdaptiveConvectionAlgorithm,AdaptiveConvectionAlgorithm,15.00,15.00,13.19,1.81,7,1,0,Yes
 Zone Information, BEDROOM3.1,0.0,0.00,0.00,0.00,-2.65,2.05,7.50,1,1,1,-5.31,0.00,-1.30,7.30,6.00,9.00,3.00,54.00,AdaptiveConvectionAlgorithm,AdaptiveConvectionAlgorithm,18.00,27.00,23.24,3.76,6,2,0,Yes
 Zone Information, BEDROOM3.8,0.0,14.50,11.00,0.00,-19.41,10.91,7.50,1,1,1,-22.61,-16.20,6.77,15.05,6.00,9.00,3.00,78.75,AdaptiveConvectionAlgorithm,AdaptiveConvectionAlgorithm,26.25,10.50,9.81,0.69,6,1,0,Yes
 Zone Information, BEDROOM3.2,0.0,6.00,0.00,0.00,-5.04,7.01,7.50,1,1,1,-7.48,-2.60,4.10,12.71,6.00,9.00,3.00,45.00,AdaptiveConvectionAlgorithm,AdaptiveConvectionAlgorithm,15.00,15.00,13.19,1.81,7,1,0,Yes
 Zone Information, LIVINGROOM3.2,0.0,13.50,3.00,0.00,-12.41,13.67,7.50,1,1,1,-16.30,-8.52,8.82,18.52,6.00,9.00,3.00,116.10,AdaptiveConvectionAlgorithm,AdaptiveConvectionAlgorithm,38.70,13.50,12.61,0.89,8,1,0,Yes
 Zone Information, BEDROOM3.7,0.0,0.00,11.00,0.00,-13.11,-2.16,7.50,1,1,1,-16.32,-9.91,-6.29,1.98,6.00,9.00,3.00,78.75,AdaptiveConvectionAlgorithm,AdaptiveConvectionAlgorithm,26.25,10.50,8.23,2.27,6,1,0,Yes
! <Zone Internal Gains Nominal>,Zone Name, Floor Area {m2},# Occupants,Area per Occupant {m2/person},Occupant per Area {person/m2},Interior Lighting {W/m2},Electric Load {W/m2},Gas Load {W/m2},Other Load {W/m2},Hot Water Eq {W/m2},Steam Equipment {W/m2},Sum Loads per Area {W/m2},Outdoor Controlled Baseboard Heat
 Zone Internal Gains Nominal, KITCHEN1.1,10.80,0.3,35.630,2.807E-002,6.000,4.300,0.000,0.000,0.000,0.000,10.300,No
 Zone Internal Gains Nominal, BEDROOM1.4,18.00,0.5,35.630,2.807E-002,3.000,4.300,0.000,0.000,0.000,0.000,7.300,No
 Zone Internal Gains Nominal, KITCHEN1.2,10.80,0.3,35.630,2.807E-002,6.000,4.300,0.000,0.000,0.000,0.000,10.300,No
 Zone Internal Gains Nominal, LIVINGROOM1.2,38.70,1.1,35.630,2.807E-002,5.000,4.300,0.000,0.000,0.000,0.000,9.300,No
 Zone Internal Gains Nominal, BEDROOM1.7,26.25,0.7,35.630,2.807E-002,3.000,4.300,0.000,0.000,0.000,0.000,7.300,No
 Zone Internal Gains Nominal, LIVINGROOM1.3,38.70,1.1,35.630,2.807E-002,5.000,4.300,0.000,0.000,0.000,0.000,9.300,No
 Zone Internal Gains Nominal, BEDROOM1.9,18.00,0.5,35.630,2.807E-002,3.000,4.300,0.000,0.000,0.000,0.000,7.300,No
 Zone Internal Gains Nominal, BEDROOM1.10,15.00,0.4,35.630,2.807E-002,3.000,4.300,0.000,0.000,0.000,0.000,7.300,No
 Zone Internal Gains Nominal, BEDROOM1.11,15.00,0.4,35.630,2.807E-002,3.000,4.300,0.000,0.000,0.000,0.000,7.300,No
 Zone Internal Gains Nominal, BEDROOM1.12,18.00,0.5,35.630,2.807E-002,3.000,4.300,0.000,0.000,0.000,0.000,7.300,No
 Zone Internal Gains Nominal, STAIRCASE1.1,49.00,0.0,N/A,0.000,0.000,0.000,0.000,0.000,0.000,0.000,0.000,No
 Zone Internal Gains Nominal, KITCHEN1.3,10.80,0.3,35.630,2.807E-002,6.000,4.300,0.000,0.000,0.000,0.000,10.300,No
 Zone Internal Gains Nominal, KITCHEN1.4,10.80,0.3,35.630,2.807E-002,6.000,4.300,0.000,0.000,0.000,0.000,10.300,No
 Zone Internal Gains Nominal, LIVINGROOM1.4,38.70,1.1,35.630,2.807E-002,5.000,4.300,0.000,0.000,0.000,0.000,9.300,No
 Zone Internal Gains Nominal, BEDROOM1.6,26.25,0.7,35.630,2.807E-002,3.000,4.300,0.000,0.000,0.000,0.000,7.300,No
 Zone Internal Gains Nominal, BEDROOM1.8,26.25,0.7,35.630,2.807E-002,3.000,4.300,0.000,0.000,0.000,0.000,7.300,No
 Zone Internal Gains Nominal, BEDROOM1.3,15.00,0.4,35.630,2.807E-002,3.000,4.300,0.000,0.000,0.000,0.000,7.300,No
 Zone Internal Gains Nominal, BEDROOM1.2,15.00,0.4,35.630,2.807E-002,3.000,4.300,0.000,0.000,0.000,0.000,7.300,No
 Zone Internal Gains Nominal, BEDROOM1.1,18.00,0.5,35.630,2.807E-002,3.000,4.300,0.000,0.000,0.000,0.000,7.300,No
 Zone Internal Gains Nominal, LIVINGROOM1.1,38.70,1.1,35.630,2.807E-002,5.000,4.300,0.000,0.000,0.000,0.000,9.300,No
 Zone Internal Gains Nominal, BEDROOM1.5,26.25,0.7,35.630,2.807E-002,3.000,4.300,0.000,0.000,0.000,0.000,7.300,No
 Zone Internal Gains Nominal, LIVINGROOM2.4,38.70,1.1,35.630,2.807E-002,5.000,4.300,0.000,0.000,0.000,0.000,9.300,No
 Zone Internal Gains Nominal, BEDROOM2.5,26.25,0.7,35.630,2.807E-002,3.000,4.300,0.000,0.000,0.000,0.000,7.300,No
 Zone Internal Gains Nominal, LIVINGROOM2.1,38.70,1.1,35.630,2.807E-002,5.000,4.300,0.000,0.000,0.000,0.000,9.300,No
 Zone Internal Gains Nominal, BEDROOM2.11,15.00,0.4,35.630,2.807E-002,3.000,4.300,0.000,0.000,0.000,0.000,7.300,No
 Zone Internal Gains Nominal, BEDROOM2.10,15.00,0.4,35.630,2.807E-002,3.000,4.300,0.000,0.000,0.000,0.000,7.300,No
 Zone Internal Gains Nominal, BEDROOM2.9,18.00,0.5,35.630,2.807E-002,3.000,4.300,0.000,0.000,0.000,0.000,7.300,No
 Zone Internal Gains Nominal, LIVINGROOM2.3,38.70,1.1,35.630,2.807E-002,5.000,4.300,0.000,0.000,0.000,0.000,9.300,No
 Zone Internal Gains Nominal, BEDROOM2.7,26.25,0.7,35.630,2.807E-002,3.000,4.300,0.000,0.000,0.000,0.000,7.300,No
 Zone Internal Gains Nominal, LIVINGROOM2.2,38.70,1.1,35.630,2.807E-002,5.000,4.300,0.000,0.000,0.000,0.000,9.300,No
 Zone Internal Gains Nominal, BEDROOM2.2,15.00,0.4,35.630,2.807E-002,3.000,4.300,0.000,0.000,0.000,0.000,7.300,No
 Zone Internal Gains Nominal, BEDROOM2.8,26.25,0.7,35.630,2.807E-002,3.000,4.300,0.000,0.000,0.000,0.000,7.300,No
 Zone Internal Gains Nominal, BEDROOM2.3,15.00,0.4,35.630,2.807E-002,3.000,4.300,0.000,0.000,0.000,0.000,7.300,No
 Zone Internal Gains Nominal, BEDROOM2.1,18.00,0.5,35.630,2.807E-002,3.000,4.300,0.000,0.000,0.000,0.000,7.300,No
 Zone Internal Gains Nominal, BEDROOM2.4,18.00,0.5,35.630,2.807E-002,3.000,4.300,0.000,0.000,0.000,0.000,7.300,No
 Zone Internal Gains Nominal, BEDROOM2.6,26.25,0.7,35.630,2.807E-002,3.000,4.300,0.000,0.000,0.000,0.000,7.300,No
 Zone Internal Gains Nominal, KITCHEN2.1,10.80,0.3,35.630,2.807E-002,6.000,4.300,0.000,0.000,0.000,0.000,10.300,No
 Zone Internal Gains Nominal, KITCHEN2.4,10.80,0.3,35.630,2.807E-002,6.000,4.300,0.000,0.000,0.000,0.000,10.300,No
 Zone Internal Gains Nominal, KITCHEN2.3,10.80,0.3,35.630,2.807E-002,6.000,4.300,0.000,0.000,0.000,0.000,10.300,No
 Zone Internal Gains Nominal, STAIRCASE2.1,49.00,0.0,N/A,0.000,0.000,0.000,0.000,0.000,0.000,0.000,0.000,No
 Zone Internal Gains Nominal, BEDROOM2.12,18.00,0.5,35.630,2.807E-002,3.000,4.300,0.000,0.000,0.000,0.000,7.300,No
 Zone Internal Gains Nominal, KITCHEN2.2,10.80,0.3,35.630,2.807E-002,6.000,4.300,0.000,0.000,0.000,0.000,10.300,No
 Zone Internal Gains Nominal, LIVINGROOM3.4,38.70,1.1,35.630,2.807E-002,5.000,4.300,0.000,0.000,0.000,0.000,9.300,No
 Zone Internal Gains Nominal, BEDROOM3.5,26.25,0.7,35.630,2.807E-002,3.000,4.300,0.000,0.000,0.000,0.000,7.300,No
 Zone Internal Gains Nominal, LIVINGROOM3.1,38.70,1.1,35.630,2.807E-002,5.000,4.300,0.000,0.000,0.000,0.000,9.300,No
 Zone Internal Gains Nominal, BEDROOM3.11,15.00,0.4,35.630,2.807E-002,3.000,4.300,0.000,0.000,0.000,0.000,7.300,No
 Zone Internal Gains Nominal, BEDROOM3.10,15.00,0.4,35.630,2.807E-002,3.000,4.300,0.000,0.000,0.000,0.000,7.300,No
 Zone Internal Gains Nominal, BEDROOM3.9,18.00,0.5,35.630,2.807E-002,3.000,4.300,0.000,0.000,0.000,0.000,7.300,No
 Zone Internal Gains Nominal, LIVINGROOM3.3,38.70,1.1,35.630,2.807E-002,5.000,4.300,0.000,0.000,0.000,0.000,9.300,No
 Zone Internal Gains Nominal, KITCHEN3.4,10.80,0.3,35.630,2.807E-002,6.000,4.300,0.000,0.000,0.000,0.000,10.300,No
 Zone Internal Gains Nominal, KITCHEN3.1,10.80,0.3,35.630,2.807E-002,6.000,4.300,0.000,0.000,0.000,0.000,10.300,No
 Zone Internal Gains Nominal, BEDROOM3.4,18.00,0.5,35.630,2.807E-002,3.000,4.300,0.000,0.000,0.000,0.000,7.300,No
 Zone Internal Gains Nominal, BEDROOM3.6,26.25,0.7,35.630,2.807E-002,3.000,4.300,0.000,0.000,0.000,0.000,7.300,No
 Zone Internal Gains Nominal, KITCHEN3.3,10.80,0.3,35.630,2.807E-002,6.000,4.300,0.000,0.000,0.000,0.000,10.300,No
 Zone Internal Gains Nominal, KITCHEN3.2,10.80,0.3,35.630,2.807E-002,6.000,4.300,0.000,0.000,0.000,0.000,10.300,No
 Zone Internal Gains Nominal, BEDROOM3.12,18.00,0.5,35.630,2.807E-002,3.000,4.300,0.000,0.000,0.000,0.000,7.300,No
 Zone Internal Gains Nominal, STAIRCASE3.1,49.00,0.0,N/A,0.000,0.000,0.000,0.000,0.000,0.000,0.000,0.000,No
 Zone Internal Gains Nominal, BEDROOM3.3,15.00,0.4,35.630,2.807E-002,3.000,4.300,0.000,0.000,0.000,0.000,7.300,No
 Zone Internal Gains Nominal, BEDROOM3.1,18.00,0.5,35.630,2.807E-002,3.000,4.300,0.000,0.000,0.000,0.000,7.300,No
 Zone Internal Gains Nominal, BEDROOM3.8,26.25,0.7,35.630,2.807E-002,3.000,4.300,0.000,0.000,0.000,0.000,7.300,No
 Zone Internal Gains Nominal, BEDROOM3.2,15.00,0.4,35.630,2.807E-002,3.000,4.300,0.000,0.000,0.000,0.000,7.300,No
 Zone Internal Gains Nominal, LIVINGROOM3.2,38.70,1.1,35.630,2.807E-002,5.000,4.300,0.000,0.000,0.000,0.000,9.300,No
 Zone Internal Gains Nominal, BEDROOM3.7,26.25,0.7,35.630,2.807E-002,3.000,4.300,0.000,0.000,0.000,0.000,7.300,No
! <People Internal Gains Nominal>,Name,Schedule Name,Zone Name,Zone Floor Area {m2},# Zone Occupants,Number of People {},People/Floor Area {person/m2},Floor Area per person {m2/person},Fraction Radiant,Fraction Convected,Sensible Fraction Calculation,Activity level,ASHRAE 55 Warnings,Carbon Dioxide Generation Rate,Nominal Minimum Number of People,Nominal Maximum Number of People
 People Internal Gains Nominal, BEDROOM3.2,BEDROOM OCCUPANCY,BEDROOM3.2,15.00,0.4,0.4,2.807E-002,35.630,0.200,0.800,AutoCalculate,ACTIVITY_ZUOZI HUODONG,No,3.8200E-008,0,0
 People Internal Gains Nominal, KITCHEN1.1,CHUFANG OCCUPANCY,KITCHEN1.1,10.80,0.3,0.3,2.807E-002,35.630,0.200,0.800,AutoCalculate,ACTIVITY_ZUOZI HUODONG,No,3.8200E-008,0,0
 People Internal Gains Nominal, KITCHEN1.2,CHUFANG OCCUPANCY,KITCHEN1.2,10.80,0.3,0.3,2.807E-002,35.630,0.200,0.800,AutoCalculate,ACTIVITY_ZUOZI HUODONG,No,3.8200E-008,0,0
 People Internal Gains Nominal, KITCHEN1.3,CHUFANG OCCUPANCY,KITCHEN1.3,10.80,0.3,0.3,2.807E-002,35.630,0.200,0.800,AutoCalculate,ACTIVITY_ZUOZI HUODONG,No,3.8200E-008,0,0
 People Internal Gains Nominal, KITCHEN1.4,CHUFANG OCCUPANCY,KITCHEN1.4,10.80,0.3,0.3,2.807E-002,35.630,0.200,0.800,AutoCalculate,ACTIVITY_ZUOZI HUODONG,No,3.8200E-008,0,0
 People Internal Gains Nominal, LIVINGROOM1.1,KETING OCCUPANCY,LIVINGROOM1.1,38.70,1.1,1.1,2.807E-002,35.630,0.200,0.800,AutoCalculate,ACTIVITY_ZUOZI HUODONG,No,3.8200E-008,0,1
 People Internal Gains Nominal, LIVINGROOM1.2,KETING OCCUPANCY,LIVINGROOM1.2,38.70,1.1,1.1,2.807E-002,35.630,0.200,0.800,AutoCalculate,ACTIVITY_ZUOZI HUODONG,No,3.8200E-008,0,1
 People Internal Gains Nominal, LIVINGROOM1.3,KETING OCCUPANCY,LIVINGROOM1.3,38.70,1.1,1.1,2.807E-002,35.630,0.200,0.800,AutoCalculate,ACTIVITY_ZUOZI HUODONG,No,3.8200E-008,0,1
 People Internal Gains Nominal, LIVINGROOM1.4,KETING OCCUPANCY,LIVINGROOM1.4,38.70,1.1,1.1,2.807E-002,35.630,0.200,0.800,AutoCalculate,ACTIVITY_ZUOZI HUODONG,No,3.8200E-008,0,1
 People Internal Gains Nominal, BEDROOM1.1,BEDROOM OCCUPANCY,BEDROOM1.1,18.00,0.5,0.5,2.807E-002,35.630,0.200,0.800,AutoCalculate,ACTIVITY_ZUOZI HUODONG,No,3.8200E-008,0,1
 People Internal Gains Nominal, BEDROOM1.2,BEDROOM OCCUPANCY,BEDROOM1.2,15.00,0.4,0.4,2.807E-002,35.630,0.200,0.800,AutoCalculate,ACTIVITY_ZUOZI HUODONG,No,3.8200E-008,0,0
 People Internal Gains Nominal, BEDROOM1.3,BEDROOM OCCUPANCY,BEDROOM1.3,15.00,0.4,0.4,2.807E-002,35.630,0.200,0.800,AutoCalculate,ACTIVITY_ZUOZI HUODONG,No,3.8200E-008,0,0
 People Internal Gains Nominal, BEDROOM1.4,BEDROOM OCCUPANCY,BEDROOM1.4,18.00,0.5,0.5,2.807E-002,35.630,0.200,0.800,AutoCalculate,ACTIVITY_ZUOZI HUODONG,No,3.8200E-008,0,1
 People Internal Gains Nominal, BEDROOM1.5,BEDROOM OCCUPANCY,BEDROOM1.5,26.25,0.7,0.7,2.807E-002,35.630,0.200,0.800,AutoCalculate,ACTIVITY_ZUOZI HUODONG,No,3.8200E-008,0,1
 People Internal Gains Nominal, BEDROOM1.6,BEDROOM OCCUPANCY,BEDROOM1.6,26.25,0.7,0.7,2.807E-002,35.630,0.200,0.800,AutoCalculate,ACTIVITY_ZUOZI HUODONG,No,3.8200E-008,0,1
 People Internal Gains Nominal, BEDROOM1.7,BEDROOM OCCUPANCY,BEDROOM1.7,26.25,0.7,0.7,2.807E-002,35.630,0.200,0.800,AutoCalculate,ACTIVITY_ZUOZI HUODONG,No,3.8200E-008,0,1
 People Internal Gains Nominal, BEDROOM1.8,BEDROOM OCCUPANCY,BEDROOM1.8,26.25,0.7,0.7,2.807E-002,35.630,0.200,0.800,AutoCalculate,ACTIVITY_ZUOZI HUODONG,No,3.8200E-008,0,1
 People Internal Gains Nominal, BEDROOM1.9,BEDROOM OCCUPANCY,BEDROOM1.9,18.00,0.5,0.5,2.807E-002,35.630,0.200,0.800,AutoCalculate,ACTIVITY_ZUOZI HUODONG,No,3.8200E-008,0,1
 People Internal Gains Nominal, BEDROOM1.10,BEDROOM OCCUPANCY,BEDROOM1.10,15.00,0.4,0.4,2.807E-002,35.630,0.200,0.800,AutoCalculate,ACTIVITY_ZUOZI HUODONG,No,3.8200E-008,0,0
 People Internal Gains Nominal, BEDROOM1.11,BEDROOM OCCUPANCY,BEDROOM1.11,15.00,0.4,0.4,2.807E-002,35.630,0.200,0.800,AutoCalculate,ACTIVITY_ZUOZI HUODONG,No,3.8200E-008,0,0
 People Internal Gains Nominal, BEDROOM1.12,BEDROOM OCCUPANCY,BEDROOM1.12,18.00,0.5,0.5,2.807E-002,35.630,0.200,0.800,AutoCalculate,ACTIVITY_ZUOZI HUODONG,No,3.8200E-008,0,1
 People Internal Gains Nominal, KITCHEN2.1,CHUFANG OCCUPANCY,KITCHEN2.1,10.80,0.3,0.3,2.807E-002,35.630,0.200,0.800,AutoCalculate,ACTIVITY_ZUOZI HUODONG,No,3.8200E-008,0,0
 People Internal Gains Nominal, KITCHEN2.2,CHUFANG OCCUPANCY,KITCHEN2.2,10.80,0.3,0.3,2.807E-002,35.630,0.200,0.800,AutoCalculate,ACTIVITY_ZUOZI HUODONG,No,3.8200E-008,0,0
 People Internal Gains Nominal, KITCHEN2.3,CHUFANG OCCUPANCY,KITCHEN2.3,10.80,0.3,0.3,2.807E-002,35.630,0.200,0.800,AutoCalculate,ACTIVITY_ZUOZI HUODONG,No,3.8200E-008,0,0
 People Internal Gains Nominal, KITCHEN2.4,CHUFANG OCCUPANCY,KITCHEN2.4,10.80,0.3,0.3,2.807E-002,35.630,0.200,0.800,AutoCalculate,ACTIVITY_ZUOZI HUODONG,No,3.8200E-008,0,0
 People Internal Gains Nominal, LIVINGROOM2.1,KETING OCCUPANCY,LIVINGROOM2.1,38.70,1.1,1.1,2.807E-002,35.630,0.200,0.800,AutoCalculate,ACTIVITY_ZUOZI HUODONG,No,3.8200E-008,0,1
 People Internal Gains Nominal, LIVINGROOM2.2,KETING OCCUPANCY,LIVINGROOM2.2,38.70,1.1,1.1,2.807E-002,35.630,0.200,0.800,AutoCalculate,ACTIVITY_ZUOZI HUODONG,No,3.8200E-008,0,1
 People Internal Gains Nominal, LIVINGROOM2.3,KETING OCCUPANCY,LIVINGROOM2.3,38.70,1.1,1.1,2.807E-002,35.630,0.200,0.800,AutoCalculate,ACTIVITY_ZUOZI HUODONG,No,3.8200E-008,0,1
 People Internal Gains Nominal, LIVINGROOM2.4,KETING OCCUPANCY,LIVINGROOM2.4,38.70,1.1,1.1,2.807E-002,35.630,0.200,0.800,AutoCalculate,ACTIVITY_ZUOZI HUODONG,No,3.8200E-008,0,1
 People Internal Gains Nominal, BEDROOM2.1,BEDROOM OCCUPANCY,BEDROOM2.1,18.00,0.5,0.5,2.807E-002,35.630,0.200,0.800,AutoCalculate,ACTIVITY_ZUOZI HUODONG,No,3.8200E-008,0,1
 People Internal Gains Nominal, BEDROOM2.3,BEDROOM OCCUPANCY,BEDROOM2.3,15.00,0.4,0.4,2.807E-002,35.630,0.200,0.800,AutoCalculate,ACTIVITY_ZUOZI HUODONG,No,3.8200E-008,0,0
 People Internal Gains Nominal, BEDROOM2.4,BEDROOM OCCUPANCY,BEDROOM2.4,18.00,0.5,0.5,2.807E-002,35.630,0.200,0.800,AutoCalculate,ACTIVITY_ZUOZI HUODONG,No,3.8200E-008,0,1
 People Internal Gains Nominal, BEDROOM2.5,BEDROOM OCCUPANCY,BEDROOM2.5,26.25,0.7,0.7,2.807E-002,35.630,0.200,0.800,AutoCalculate,ACTIVITY_ZUOZI HUODONG,No,3.8200E-008,0,1
 People Internal Gains Nominal, BEDROOM2.6,BEDROOM OCCUPANCY,BEDROOM2.6,26.25,0.7,0.7,2.807E-002,35.630,0.200,0.800,AutoCalculate,ACTIVITY_ZUOZI HUODONG,No,3.8200E-008,0,1
 People Internal Gains Nominal, BEDROOM2.7,BEDROOM OCCUPANCY,BEDROOM2.7,26.25,0.7,0.7,2.807E-002,35.630,0.200,0.800,AutoCalculate,ACTIVITY_ZUOZI HUODONG,No,3.8200E-008,0,1
 People Internal Gains Nominal, BEDROOM2.8,BEDROOM OCCUPANCY,BEDROOM2.8,26.25,0.7,0.7,2.807E-002,35.630,0.200,0.800,AutoCalculate,ACTIVITY_ZUOZI HUODONG,No,3.8200E-008,0,1
 People Internal Gains Nominal, BEDROOM2.9,BEDROOM OCCUPANCY,BEDROOM2.9,18.00,0.5,0.5,2.807E-002,35.630,0.200,0.800,AutoCalculate,ACTIVITY_ZUOZI HUODONG,No,3.8200E-008,0,1
 People Internal Gains Nominal, BEDROOM2.10,BEDROOM OCCUPANCY,BEDROOM2.10,15.00,0.4,0.4,2.807E-002,35.630,0.200,0.800,AutoCalculate,ACTIVITY_ZUOZI HUODONG,No,3.8200E-008,0,0
 People Internal Gains Nominal, BEDROOM2.11,BEDROOM OCCUPANCY,BEDROOM2.11,15.00,0.4,0.4,2.807E-002,35.630,0.200,0.800,AutoCalculate,ACTIVITY_ZUOZI HUODONG,No,3.8200E-008,0,0
 People Internal Gains Nominal, BEDROOM2.12,BEDROOM OCCUPANCY,BEDROOM2.12,18.00,0.5,0.5,2.807E-002,35.630,0.200,0.800,AutoCalculate,ACTIVITY_ZUOZI HUODONG,No,3.8200E-008,0,1
 People Internal Gains Nominal, KITCHEN3.1,CHUFANG OCCUPANCY,KITCHEN3.1,10.80,0.3,0.3,2.807E-002,35.630,0.200,0.800,AutoCalculate,ACTIVITY_ZUOZI HUODONG,No,3.8200E-008,0,0
 People Internal Gains Nominal, KITCHEN3.2,CHUFANG OCCUPANCY,KITCHEN3.2,10.80,0.3,0.3,2.807E-002,35.630,0.200,0.800,AutoCalculate,ACTIVITY_ZUOZI HUODONG,No,3.8200E-008,0,0
 People Internal Gains Nominal, KITCHEN3.3,CHUFANG OCCUPANCY,KITCHEN3.3,10.80,0.3,0.3,2.807E-002,35.630,0.200,0.800,AutoCalculate,ACTIVITY_ZUOZI HUODONG,No,3.8200E-008,0,0
 People Internal Gains Nominal, KITCHEN3.4,CHUFANG OCCUPANCY,KITCHEN3.4,10.80,0.3,0.3,2.807E-002,35.630,0.200,0.800,AutoCalculate,ACTIVITY_ZUOZI HUODONG,No,3.8200E-008,0,0
 People Internal Gains Nominal, LIVINGROOM3.1,KETING OCCUPANCY,LIVINGROOM3.1,38.70,1.1,1.1,2.807E-002,35.630,0.200,0.800,AutoCalculate,ACTIVITY_ZUOZI HUODONG,No,3.8200E-008,0,1
 People Internal Gains Nominal, LIVINGROOM3.2,KETING OCCUPANCY,LIVINGROOM3.2,38.70,1.1,1.1,2.807E-002,35.630,0.200,0.800,AutoCalculate,ACTIVITY_ZUOZI HUODONG,No,3.8200E-008,0,1
 People Internal Gains Nominal, LIVINGROOM3.3,KETING OCCUPANCY,LIVINGROOM3.3,38.70,1.1,1.1,2.807E-002,35.630,0.200,0.800,AutoCalculate,ACTIVITY_ZUOZI HUODONG,No,3.8200E-008,0,1
 People Internal Gains Nominal, LIVINGROOM3.4,KETING OCCUPANCY,LIVINGROOM3.4,38.70,1.1,1.1,2.807E-002,35.630,0.200,0.800,AutoCalculate,ACTIVITY_ZUOZI HUODONG,No,3.8200E-008,0,1
 People Internal Gains Nominal, BEDROOM3.1,BEDROOM OCCUPANCY,BEDROOM3.1,18.00,0.5,0.5,2.807E-002,35.630,0.200,0.800,AutoCalculate,ACTIVITY_ZUOZI HUODONG,No,3.8200E-008,0,1
 People Internal Gains Nominal, BEDROOM3.3,BEDROOM OCCUPANCY,BEDROOM3.3,15.00,0.4,0.4,2.807E-002,35.630,0.200,0.800,AutoCalculate,ACTIVITY_ZUOZI HUODONG,No,3.8200E-008,0,0
 People Internal Gains Nominal, BEDROOM3.4,BEDROOM OCCUPANCY,BEDROOM3.4,18.00,0.5,0.5,2.807E-002,35.630,0.200,0.800,AutoCalculate,ACTIVITY_ZUOZI HUODONG,No,3.8200E-008,0,1
 People Internal Gains Nominal, BEDROOM3.5,BEDROOM OCCUPANCY,BEDROOM3.5,26.25,0.7,0.7,2.807E-002,35.630,0.200,0.800,AutoCalculate,ACTIVITY_ZUOZI HUODONG,No,3.8200E-008,0,1
 People Internal Gains Nominal, BEDROOM3.6,BEDROOM OCCUPANCY,BEDROOM3.6,26.25,0.7,0.7,2.807E-002,35.630,0.200,0.800,AutoCalculate,ACTIVITY_ZUOZI HUODONG,No,3.8200E-008,0,1
 People Internal Gains Nominal, BEDROOM3.7,BEDROOM OCCUPANCY,BEDROOM3.7,26.25,0.7,0.7,2.807E-002,35.630,0.200,0.800,AutoCalculate,ACTIVITY_ZUOZI HUODONG,No,3.8200E-008,0,1
 People Internal Gains Nominal, BEDROOM3.8,BEDROOM OCCUPANCY,BEDROOM3.8,26.25,0.7,0.7,2.807E-002,35.630,0.200,0.800,AutoCalculate,ACTIVITY_ZUOZI HUODONG,No,3.8200E-008,0,1
 People Internal Gains Nominal, BEDROOM3.9,BEDROOM OCCUPANCY,BEDROOM3.9,18.00,0.5,0.5,2.807E-002,35.630,0.200,0.800,AutoCalculate,ACTIVITY_ZUOZI HUODONG,No,3.8200E-008,0,1
 People Internal Gains Nominal, BEDROOM3.10,BEDROOM OCCUPANCY,BEDROOM3.10,15.00,0.4,0.4,2.807E-002,35.630,0.200,0.800,AutoCalculate,ACTIVITY_ZUOZI HUODONG,No,3.8200E-008,0,0
 People Internal Gains Nominal, BEDROOM3.11,BEDROOM OCCUPANCY,BEDROOM3.11,15.00,0.4,0.4,2.807E-002,35.630,0.200,0.800,AutoCalculate,ACTIVITY_ZUOZI HUODONG,No,3.8200E-008,0,0
 People Internal Gains Nominal, BEDROOM3.12,BEDROOM OCCUPANCY,BEDROOM3.12,18.00,0.5,0.5,2.807E-002,35.630,0.200,0.800,AutoCalculate,ACTIVITY_ZUOZI HUODONG,No,3.8200E-008,0,1
 People Internal Gains Nominal, BEDROOM2.2,BEDROOM OCCUPANCY,BEDROOM2.2,15.00,0.4,0.4,2.807E-002,35.630,0.200,0.800,AutoCalculate,ACTIVITY_ZUOZI HUODONG,No,3.8200E-008,0,0,Zone Averaged,WORK EFFICIENCY,Clothing Insulation Schedule,N/A,CLOTHING INSULATION SCHEDULE,AIR VELOCITY SCHEDULE,Yes,No,No
! <Lights Internal Gains Nominal>,Name,Schedule Name,Zone Name,Zone Floor Area {m2},# Zone Occupants,Lighting Level {W},Lights/Floor Area {W/m2},Lights per person {W/person},Fraction Return Air,Fraction Radiant,Fraction Short Wave,Fraction Convected,Fraction Replaceable,End-Use Category,Nominal Minimum Lighting Level {W},Nominal Maximum Lighting Level {W}
 Lights Internal Gains Nominal, KITCHEN1.1,LIGHTING CHUFANG,KITCHEN1.1,10.80,0.3,64.800,6.000,213.780,0.000,0.720,0.180,0.100,1.000,General,0.000,51.840
 Lights Internal Gains Nominal, KITCHEN1.2,LIGHTING CHUFANG,KITCHEN1.2,10.80,0.3,64.800,6.000,213.780,0.000,0.720,0.180,0.100,1.000,General,0.000,51.840
 Lights Internal Gains Nominal, KITCHEN1.3,LIGHTING CHUFANG,KITCHEN1.3,10.80,0.3,64.800,6.000,213.780,0.000,0.720,0.180,0.100,1.000,General,0.000,51.840
 Lights Internal Gains Nominal, KITCHEN1.4,LIGHTING CHUFANG,KITCHEN1.4,10.80,0.3,64.800,6.000,213.780,0.000,0.720,0.180,0.100,1.000,General,0.000,51.840
 Lights Internal Gains Nominal, LIVINGROOM1.1,LIGHT-KETING,LIVINGROOM1.1,38.70,1.1,193.500,5.000,178.150,0.000,0.720,0.180,0.100,1.000,General,0.000,193.500
 Lights Internal Gains Nominal, LIVINGROOM1.2,LIGHT-KETING,LIVINGROOM1.2,38.70,1.1,193.500,5.000,178.150,0.000,0.720,0.180,0.100,1.000,General,0.000,193.500
 Lights Internal Gains Nominal, LIVINGROOM1.3,LIGHT-KETING,LIVINGROOM1.3,38.70,1.1,193.500,5.000,178.150,0.000,0.720,0.180,0.100,1.000,General,0.000,193.500
 Lights Internal Gains Nominal, LIVINGROOM1.4,LIGHT-KETING,LIVINGROOM1.4,38.70,1.1,193.500,5.000,178.150,0.000,0.720,0.180,0.100,1.000,General,0.000,193.500
 Lights Internal Gains Nominal, BEDROOM1.1,LIGHT-BEDROOM,BEDROOM1.1,18.00,0.5,54.000,3.000,106.890,0.000,0.720,0.180,0.100,1.000,General,0.000,54.000
 Lights Internal Gains Nominal, BEDROOM1.2,LIGHT-BEDROOM,BEDROOM1.2,15.00,0.4,45.000,3.000,106.890,0.000,0.720,0.180,0.100,1.000,General,0.000,45.000
 Lights Internal Gains Nominal, BEDROOM1.3,LIGHT-BEDROOM,BEDROOM1.3,15.00,0.4,45.000,3.000,106.890,0.000,0.720,0.180,0.100,1.000,General,0.000,45.000
 Lights Internal Gains Nominal, BEDROOM1.4,LIGHT-BEDROOM,BEDROOM1.4,18.00,0.5,54.000,3.000,106.890,0.000,0.720,0.180,0.100,1.000,General,0.000,54.000
 Lights Internal Gains Nominal, BEDROOM1.5,LIGHT-BEDROOM,BEDROOM1.5,26.25,0.7,78.750,3.000,106.890,0.000,0.720,0.180,0.100,1.000,General,0.000,78.750
 Lights Internal Gains Nominal, BEDROOM1.6,LIGHT-BEDROOM,BEDROOM1.6,26.25,0.7,78.750,3.000,106.890,0.000,0.720,0.180,0.100,1.000,General,0.000,78.750
 Lights Internal Gains Nominal, BEDROOM1.7,LIGHT-BEDROOM,BEDROOM1.7,26.25,0.7,78.750,3.000,106.890,0.000,0.720,0.180,0.100,1.000,General,0.000,78.750
 Lights Internal Gains Nominal, BEDROOM1.8,LIGHT-BEDROOM,BEDROOM1.8,26.25,0.7,78.750,3.000,106.890,0.000,0.720,0.180,0.100,1.000,General,0.000,78.750
 Lights Internal Gains Nominal, BEDROOM1.9,LIGHT-BEDROOM,BEDROOM1.9,18.00,0.5,54.000,3.000,106.890,0.000,0.720,0.180,0.100,1.000,General,0.000,54.000
 Lights Internal Gains Nominal, BEDROOM1.10,LIGHT-BEDROOM,BEDROOM1.10,15.00,0.4,45.000,3.000,106.890,0.000,0.720,0.180,0.100,1.000,General,0.000,45.000
 Lights Internal Gains Nominal, BEDROOM1.11,LIGHT-BEDROOM,BEDROOM1.11,15.00,0.4,45.000,3.000,106.890,0.000,0.720,0.180,0.100,1.000,General,0.000,45.000
 Lights Internal Gains Nominal, BEDROOM1.12,LIGHT-BEDROOM,BEDROOM1.12,18.00,0.5,54.000,3.000,106.890,0.000,0.720,0.180,0.100,1.000,General,0.000,54.000
 Lights Internal Gains Nominal, KITCHEN2.1,LIGHTING CHUFANG,KITCHEN2.1,10.80,0.3,64.800,6.000,213.780,0.000,0.720,0.180,0.100,1.000,General,0.000,51.840
 Lights Internal Gains Nominal, KITCHEN2.2,LIGHTING CHUFANG,KITCHEN2.2,10.80,0.3,64.800,6.000,213.780,0.000,0.720,0.180,0.100,1.000,General,0.000,51.840
 Lights Internal Gains Nominal, KITCHEN2.3,LIGHTING CHUFANG,KITCHEN2.3,10.80,0.3,64.800,6.000,213.780,0.000,0.720,0.180,0.100,1.000,General,0.000,51.840
 Lights Internal Gains Nominal, KITCHEN2.4,LIGHTING CHUFANG,KITCHEN2.4,10.80,0.3,64.800,6.000,213.780,0.000,0.720,0.180,0.100,1.000,General,0.000,51.840
 Lights Internal Gains Nominal, LIVINGROOM2.1,LIGHT-KETING,LIVINGROOM2.1,38.70,1.1,193.500,5.000,178.150,0.000,0.720,0.180,0.100,1.000,General,0.000,193.500
 Lights Internal Gains Nominal, LIVINGROOM2.2,LIGHT-KETING,LIVINGROOM2.2,38.70,1.1,193.500,5.000,178.150,0.000,0.720,0.180,0.100,1.000,General,0.000,193.500
 Lights Internal Gains Nominal, LIVINGROOM2.3,LIGHT-KETING,LIVINGROOM2.3,38.70,1.1,193.500,5.000,178.150,0.000,0.720,0.180,0.100,1.000,General,0.000,193.500
 Lights Internal Gains Nominal, LIVINGROOM2.4,LIGHT-KETING,LIVINGROOM2.4,38.70,1.1,193.500,5.000,178.150,0.000,0.720,0.180,0.100,1.000,General,0.000,193.500
 Lights Internal Gains Nominal, BEDROOM2.1,LIGHT-BEDROOM,BEDROOM2.1,18.00,0.5,54.000,3.000,106.890,0.000,0.720,0.180,0.100,1.000,General,0.000,54.000
 Lights Internal Gains Nominal, BEDROOM2.2,LIGHT-BEDROOM,BEDROOM2.2,15.00,0.4,45.000,3.000,106.890,0.000,0.720,0.180,0.100,1.000,General,0.000,45.000
 Lights Internal Gains Nominal, BEDROOM2.3,LIGHT-BEDROOM,BEDROOM2.3,15.00,0.4,45.000,3.000,106.890,0.000,0.720,0.180,0.100,1.000,General,0.000,45.000
 Lights Internal Gains Nominal, BEDROOM2.4,LIGHT-BEDROOM,BEDROOM2.4,18.00,0.5,54.000,3.000,106.890,0.000,0.720,0.180,0.100,1.000,General,0.000,54.000
 Lights Internal Gains Nominal, BEDROOM2.5,LIGHT-BEDROOM,BEDROOM2.5,26.25,0.7,78.750,3.000,106.890,0.000,0.720,0.180,0.100,1.000,General,0.000,78.750
 Lights Internal Gains Nominal, BEDROOM2.6,LIGHT-BEDROOM,BEDROOM2.6,26.25,0.7,78.750,3.000,106.890,0.000,0.720,0.180,0.100,1.000,General,0.000,78.750
 Lights Internal Gains Nominal, BEDROOM2.7,LIGHT-BEDROOM,BEDROOM2.7,26.25,0.7,78.750,3.000,106.890,0.000,0.720,0.180,0.100,1.000,General,0.000,78.750
 Lights Internal Gains Nominal, BEDROOM2.8,LIGHT-BEDROOM,BEDROOM2.8,26.25,0.7,78.750,3.000,106.890,0.000,0.720,0.180,0.100,1.000,General,0.000,78.750
 Lights Internal Gains Nominal, BEDROOM2.9,LIGHT-BEDROOM,BEDROOM2.9,18.00,0.5,54.000,3.000,106.890,0.000,0.720,0.180,0.100,1.000,General,0.000,54.000
 Lights Internal Gains Nominal, BEDROOM2.10,LIGHT-BEDROOM,BEDROOM2.10,15.00,0.4,45.000,3.000,106.890,0.000,0.720,0.180,0.100,1.000,General,0.000,45.000
 Lights Internal Gains Nominal, BEDROOM2.11,LIGHT-BEDROOM,BEDROOM2.11,15.00,0.4,45.000,3.000,106.890,0.000,0.720,0.180,0.100,1.000,General,0.000,45.000
 Lights Internal Gains Nominal, BEDROOM2.12,LIGHT-BEDROOM,BEDROOM2.12,18.00,0.5,54.000,3.000,106.890,0.000,0.720,0.180,0.100,1.000,General,0.000,54.000
 Lights Internal Gains Nominal, KITCHEN3.1,LIGHTING CHUFANG,KITCHEN3.1,10.80,0.3,64.800,6.000,213.780,0.000,0.720,0.180,0.100,1.000,General,0.000,51.840
 Lights Internal Gains Nominal, KITCHEN3.2,LIGHTING CHUFANG,KITCHEN3.2,10.80,0.3,64.800,6.000,213.780,0.000,0.720,0.180,0.100,1.000,General,0.000,51.840
 Lights Internal Gains Nominal, KITCHEN3.3,LIGHTING CHUFANG,KITCHEN3.3,10.80,0.3,64.800,6.000,213.780,0.000,0.720,0.180,0.100,1.000,General,0.000,51.840
 Lights Internal Gains Nominal, KITCHEN3.4,LIGHTING CHUFANG,KITCHEN3.4,10.80,0.3,64.800,6.000,213.780,0.000,0.720,0.180,0.100,1.000,General,0.000,51.840
 Lights Internal Gains Nominal, LIVINGROOM3.1,LIGHT-KETING,LIVINGROOM3.1,38.70,1.1,193.500,5.000,178.150,0.000,0.720,0.180,0.100,1.000,General,0.000,193.500
 Lights Internal Gains Nominal, LIVINGROOM3.2,LIGHT-KETING,LIVINGROOM3.2,38.70,1.1,193.500,5.000,178.150,0.000,0.720,0.180,0.100,1.000,General,0.000,193.500
 Lights Internal Gains Nominal, LIVINGROOM3.3,LIGHT-KETING,LIVINGROOM3.3,38.70,1.1,193.500,5.000,178.150,0.000,0.720,0.180,0.100,1.000,General,0.000,193.500
 Lights Internal Gains Nominal, LIVINGROOM3.4,LIGHT-KETING,LIVINGROOM3.4,38.70,1.1,193.500,5.000,178.150,0.000,0.720,0.180,0.100,1.000,General,0.000,193.500
 Lights Internal Gains Nominal, BEDROOM3.1,LIGHT-BEDROOM,BEDROOM3.1,18.00,0.5,54.000,3.000,106.890,0.000,0.720,0.180,0.100,1.000,General,0.000,54.000
 Lights Internal Gains Nominal, BEDROOM3.2,LIGHT-BEDROOM,BEDROOM3.2,15.00,0.4,45.000,3.000,106.890,0.000,0.720,0.180,0.100,1.000,General,0.000,45.000
 Lights Internal Gains Nominal, BEDROOM3.3,LIGHT-BEDROOM,BEDROOM3.3,15.00,0.4,45.000,3.000,106.890,0.000,0.720,0.180,0.100,1.000,General,0.000,45.000
 Lights Internal Gains Nominal, BEDROOM3.4,LIGHT-BEDROOM,BEDROOM3.4,18.00,0.5,54.000,3.000,106.890,0.000,0.720,0.180,0.100,1.000,General,0.000,54.000
 Lights Internal Gains Nominal, BEDROOM3.5,LIGHT-BEDROOM,BEDROOM3.5,26.25,0.7,78.750,3.000,106.890,0.000,0.720,0.180,0.100,1.000,General,0.000,78.750
 Lights Internal Gains Nominal, BEDROOM3.6,LIGHT-BEDROOM,BEDROOM3.6,26.25,0.7,78.750,3.000,106.890,0.000,0.720,0.180,0.100,1.000,General,0.000,78.750
 Lights Internal Gains Nominal, BEDROOM3.7,LIGHT-BEDROOM,BEDROOM3.7,26.25,0.7,78.750,3.000,106.890,0.000,0.720,0.180,0.100,1.000,General,0.000,78.750
 Lights Internal Gains Nominal, BEDROOM3.8,LIGHT-BEDROOM,BEDROOM3.8,26.25,0.7,78.750,3.000,106.890,0.000,0.720,0.180,0.100,1.000,General,0.000,78.750
 Lights Internal Gains Nominal, BEDROOM3.9,LIGHT-BEDROOM,BEDROOM3.9,18.00,0.5,54.000,3.000,106.890,0.000,0.720,0.180,0.100,1.000,General,0.000,54.000
 Lights Internal Gains Nominal, BEDROOM3.10,LIGHT-BEDROOM,BEDROOM3.10,15.00,0.4,45.000,3.000,106.890,0.000,0.720,0.180,0.100,1.000,General,0.000,45.000
 Lights Internal Gains Nominal, BEDROOM3.11,LIGHT-BEDROOM,BEDROOM3.11,15.00,0.4,45.000,3.000,106.890,0.000,0.720,0.180,0.100,1.000,General,0.000,45.000
 Lights Internal Gains Nominal, BEDROOM3.12,LIGHT-BEDROOM,BEDROOM3.12,18.00,0.5,54.000,3.000,106.890,0.000,0.720,0.180,0.100,1.000,General,0.000,54.000
! <ElectricEquipment Internal Gains Nominal>,Name,Schedule Name,Zone Name,Zone Floor Area {m2},# Zone Occupants,Equipment Level {W},Equipment/Floor Area {W/m2},Equipment per person {W/person},Fraction Latent,Fraction Radiant,Fraction Lost,Fraction Convected,End-Use SubCategory,Nominal Minimum Equipment Level {W},Nominal Maximum Equipment Level {W}
 ElectricEquipment Internal Gains Nominal, KITCHEN1.1,EQUIPMENT CHUFANG,KITCHEN1.1,10.80,0.3,46.440,4.300,153.209,0.000,0.250,0.000,0.750,General,0.000,46.440
 ElectricEquipment Internal Gains Nominal, KITCHEN1.2,EQUIPMENT CHUFANG,KITCHEN1.2,10.80,0.3,46.440,4.300,153.209,0.000,0.250,0.000,0.750,General,0.000,46.440
 ElectricEquipment Internal Gains Nominal, KITCHEN1.3,EQUIPMENT CHUFANG,KITCHEN1.3,10.80,0.3,46.440,4.300,153.209,0.000,0.250,0.000,0.750,General,0.000,46.440
 ElectricEquipment Internal Gains Nominal, KITCHEN1.4,EQUIPMENT CHUFANG,KITCHEN1.4,10.80,0.3,46.440,4.300,153.209,0.000,0.250,0.000,0.750,General,0.000,46.440
 ElectricEquipment Internal Gains Nominal, LIVINGROOM1.1,EQUIPMENT-KETING,LIVINGROOM1.1,38.70,1.1,166.410,4.300,153.209,0.000,0.250,0.000,0.750,General,37.609,166.410
 ElectricEquipment Internal Gains Nominal, LIVINGROOM1.2,EQUIPMENT-KETING,LIVINGROOM1.2,38.70,1.1,166.410,4.300,153.209,0.000,0.250,0.000,0.750,General,37.609,166.410
 ElectricEquipment Internal Gains Nominal, LIVINGROOM1.3,EQUIPMENT-KETING,LIVINGROOM1.3,38.70,1.1,166.410,4.300,153.209,0.000,0.250,0.000,0.750,General,37.609,166.410
 ElectricEquipment Internal Gains Nominal, LIVINGROOM1.4,EQUIPMENT-KETING,LIVINGROOM1.4,38.70,1.1,166.410,4.300,153.209,0.000,0.250,0.000,0.750,General,37.609,166.410
 ElectricEquipment Internal Gains Nominal, BEDROOM1.1,EQUIPMENT-BEDROOM,BEDROOM1.1,18.00,0.5,77.400,4.300,153.209,0.000,0.250,0.000,0.750,General,0.000,77.400
 ElectricEquipment Internal Gains Nominal, BEDROOM1.2,EQUIPMENT-BEDROOM,BEDROOM1.2,15.00,0.4,64.500,4.300,153.209,0.000,0.250,0.000,0.750,General,0.000,64.500
 ElectricEquipment Internal Gains Nominal, BEDROOM1.3,EQUIPMENT-BEDROOM,BEDROOM1.3,15.00,0.4,64.500,4.300,153.209,0.000,0.250,0.000,0.750,General,0.000,64.500
 ElectricEquipment Internal Gains Nominal, BEDROOM1.4,EQUIPMENT-BEDROOM,BEDROOM1.4,18.00,0.5,77.400,4.300,153.209,0.000,0.250,0.000,0.750,General,0.000,77.400
 ElectricEquipment Internal Gains Nominal, BEDROOM1.5,EQUIPMENT-BEDROOM,BEDROOM1.5,26.25,0.7,112.875,4.300,153.209,0.000,0.250,0.000,0.750,General,0.000,112.875
 ElectricEquipment Internal Gains Nominal, BEDROOM1.6,EQUIPMENT-BEDROOM,BEDROOM1.6,26.25,0.7,112.875,4.300,153.209,0.000,0.250,0.000,0.750,General,0.000,112.875
 ElectricEquipment Internal Gains Nominal, BEDROOM1.7,EQUIPMENT-BEDROOM,BEDROOM1.7,26.25,0.7,112.875,4.300,153.209,0.000,0.250,0.000,0.750,General,0.000,112.875
 ElectricEquipment Internal Gains Nominal, BEDROOM1.8,EQUIPMENT-BEDROOM,BEDROOM1.8,26.25,0.7,112.875,4.300,153.209,0.000,0.250,0.000,0.750,General,0.000,112.875
 ElectricEquipment Internal Gains Nominal, BEDROOM1.9,EQUIPMENT-BEDROOM,BEDROOM1.9,18.00,0.5,77.400,4.300,153.209,0.000,0.250,0.000,0.750,General,0.000,77.400
 ElectricEquipment Internal Gains Nominal, BEDROOM1.10,EQUIPMENT-BEDROOM,BEDROOM1.10,15.00,0.4,64.500,4.300,153.209,0.000,0.250,0.000,0.750,General,0.000,64.500
 ElectricEquipment Internal Gains Nominal, BEDROOM1.11,EQUIPMENT-BEDROOM,BEDROOM1.11,15.00,0.4,64.500,4.300,153.209,0.000,0.250,0.000,0.750,General,0.000,64.500
 ElectricEquipment Internal Gains Nominal, BEDROOM1.12,EQUIPMENT-BEDROOM,BEDROOM1.12,18.00,0.5,77.400,4.300,153.209,0.000,0.250,0.000,0.750,General,0.000,77.400
 ElectricEquipment Internal Gains Nominal, KITCHEN2.1,EQUIPMENT CHUFANG,KITCHEN2.1,10.80,0.3,46.440,4.300,153.209,0.000,0.250,0.000,0.750,General,0.000,46.440
 ElectricEquipment Internal Gains Nominal, KITCHEN2.2,EQUIPMENT CHUFANG,KITCHEN2.2,10.80,0.3,46.440,4.300,153.209,0.000,0.250,0.000,0.750,General,0.000,46.440
 ElectricEquipment Internal Gains Nominal, KITCHEN2.3,EQUIPMENT CHUFANG,KITCHEN2.3,10.80,0.3,46.440,4.300,153.209,0.000,0.250,0.000,0.750,General,0.000,46.440
 ElectricEquipment Internal Gains Nominal, KITCHEN2.4,EQUIPMENT CHUFANG,KITCHEN2.4,10.80,0.3,46.440,4.300,153.209,0.000,0.250,0.000,0.750,General,0.000,46.440
 ElectricEquipment Internal Gains Nominal, LIVINGROOM2.1,EQUIPMENT-KETING,LIVINGROOM2.1,38.70,1.1,166.410,4.300,153.209,0.000,0.250,0.000,0.750,General,37.609,166.410
 ElectricEquipment Internal Gains Nominal, LIVINGROOM2.2,EQUIPMENT-KETING,LIVINGROOM2.2,38.70,1.1,166.410,4.300,153.209,0.000,0.250,0.000,0.750,General,37.609,166.410
 ElectricEquipment Internal Gains Nominal, LIVINGROOM2.3,EQUIPMENT-KETING,LIVINGROOM2.3,38.70,1.1,166.410,4.300,153.209,0.000,0.250,0.000,0.750,General,37.609,166.410
 ElectricEquipment Internal Gains Nominal, LIVINGROOM2.4,EQUIPMENT-KETING,LIVINGROOM2.4,38.70,1.1,166.410,4.300,153.209,0.000,0.250,0.000,0.750,General,37.609,166.410
 ElectricEquipment Internal Gains Nominal, BEDROOM2.1,EQUIPMENT-BEDROOM,BEDROOM2.1,18.00,0.5,77.400,4.300,153.209,0.000,0.250,0.000,0.750,General,0.000,77.400
 ElectricEquipment Internal Gains Nominal, BEDROOM2.2,EQUIPMENT-BEDROOM,BEDROOM2.2,15.00,0.4,64.500,4.300,153.209,0.000,0.250,0.000,0.750,General,0.000,64.500
 ElectricEquipment Internal Gains Nominal, BEDROOM2.3,EQUIPMENT-BEDROOM,BEDROOM2.3,15.00,0.4,64.500,4.300,153.209,0.000,0.250,0.000,0.750,General,0.000,64.500
 ElectricEquipment Internal Gains Nominal, BEDROOM2.4,EQUIPMENT-BEDROOM,BEDROOM2.4,18.00,0.5,77.400,4.300,153.209,0.000,0.250,0.000,0.750,General,0.000,77.400
 ElectricEquipment Internal Gains Nominal, BEDROOM2.5,EQUIPMENT-BEDROOM,BEDROOM2.5,26.25,0.7,112.875,4.300,153.209,0.000,0.250,0.000,0.750,General,0.000,112.875
 ElectricEquipment Internal Gains Nominal, BEDROOM2.6,EQUIPMENT-BEDROOM,BEDROOM2.6,26.25,0.7,112.875,4.300,153.209,0.000,0.250,0.000,0.750,General,0.000,112.875
 ElectricEquipment Internal Gains Nominal, BEDROOM2.7,EQUIPMENT-BEDROOM,BEDROOM2.7,26.25,0.7,112.875,4.300,153.209,0.000,0.250,0.000,0.750,General,0.000,112.875
 ElectricEquipment Internal Gains Nominal, BEDROOM2.8,EQUIPMENT-BEDROOM,BEDROOM2.8,26.25,0.7,112.875,4.300,153.209,0.000,0.250,0.000,0.750,General,0.000,112.875
 ElectricEquipment Internal Gains Nominal, BEDROOM2.9,EQUIPMENT-BEDROOM,BEDROOM2.9,18.00,0.5,77.400,4.300,153.209,0.000,0.250,0.000,0.750,General,0.000,77.400
 ElectricEquipment Internal Gains Nominal, BEDROOM2.10,EQUIPMENT-BEDROOM,BEDROOM2.10,15.00,0.4,64.500,4.300,153.209,0.000,0.250,0.000,0.750,General,0.000,64.500
 ElectricEquipment Internal Gains Nominal, BEDROOM2.11,EQUIPMENT-BEDROOM,BEDROOM2.11,15.00,0.4,64.500,4.300,153.209,0.000,0.250,0.000,0.750,General,0.000,64.500
 ElectricEquipment Internal Gains Nominal, BEDROOM2.12,EQUIPMENT-BEDROOM,BEDROOM2.12,18.00,0.5,77.400,4.300,153.209,0.000,0.250,0.000,0.750,General,0.000,77.400
 ElectricEquipment Internal Gains Nominal, KITCHEN3.1,EQUIPMENT CHUFANG,KITCHEN3.1,10.80,0.3,46.440,4.300,153.209,0.000,0.250,0.000,0.750,General,0.000,46.440
 ElectricEquipment Internal Gains Nominal, KITCHEN3.2,EQUIPMENT CHUFANG,KITCHEN3.2,10.80,0.3,46.440,4.300,153.209,0.000,0.250,0.000,0.750,General,0.000,46.440
 ElectricEquipment Internal Gains Nominal, KITCHEN3.3,EQUIPMENT CHUFANG,KITCHEN3.3,10.80,0.3,46.440,4.300,153.209,0.000,0.250,0.000,0.750,General,0.000,46.440
 ElectricEquipment Internal Gains Nominal, KITCHEN3.4,EQUIPMENT CHUFANG,KITCHEN3.4,10.80,0.3,46.440,4.300,153.209,0.000,0.250,0.000,0.750,General,0.000,46.440
 ElectricEquipment Internal Gains Nominal, LIVINGROOM3.1,EQUIPMENT-KETING,LIVINGROOM3.1,38.70,1.1,166.410,4.300,153.209,0.000,0.250,0.000,0.750,General,37.609,166.410
 ElectricEquipment Internal Gains Nominal, LIVINGROOM3.2,EQUIPMENT-KETING,LIVINGROOM3.2,38.70,1.1,166.410,4.300,153.209,0.000,0.250,0.000,0.750,General,37.609,166.410
 ElectricEquipment Internal Gains Nominal, LIVINGROOM3.3,EQUIPMENT-KETING,LIVINGROOM3.3,38.70,1.1,166.410,4.300,153.209,0.000,0.250,0.000,0.750,General,37.609,166.410
 ElectricEquipment Internal Gains Nominal, LIVINGROOM3.4,EQUIPMENT-KETING,LIVINGROOM3.4,38.70,1.1,166.410,4.300,153.209,0.000,0.250,0.000,0.750,General,37.609,166.410
 ElectricEquipment Internal Gains Nominal, BEDROOM3.1,EQUIPMENT-BEDROOM,BEDROOM3.1,18.00,0.5,77.400,4.300,153.209,0.000,0.250,0.000,0.750,General,0.000,77.400
 ElectricEquipment Internal Gains Nominal, BEDROOM3.2,EQUIPMENT-BEDROOM,BEDROOM3.2,15.00,0.4,64.500,4.300,153.209,0.000,0.250,0.000,0.750,General,0.000,64.500
 ElectricEquipment Internal Gains Nominal, BEDROOM3.3,EQUIPMENT-BEDROOM,BEDROOM3.3,15.00,0.4,64.500,4.300,153.209,0.000,0.250,0.000,0.750,General,0.000,64.500
 ElectricEquipment Internal Gains Nominal, BEDROOM3.4,EQUIPMENT-BEDROOM,BEDROOM3.4,18.00,0.5,77.400,4.300,153.209,0.000,0.250,0.000,0.750,General,0.000,77.400
 ElectricEquipment Internal Gains Nominal, BEDROOM3.5,EQUIPMENT-BEDROOM,BEDROOM3.5,26.25,0.7,112.875,4.300,153.209,0.000,0.250,0.000,0.750,General,0.000,112.875
 ElectricEquipment Internal Gains Nominal, BEDROOM3.6,EQUIPMENT-BEDROOM,BEDROOM3.6,26.25,0.7,112.875,4.300,153.209,0.000,0.250,0.000,0.750,General,0.000,112.875
 ElectricEquipment Internal Gains Nominal, BEDROOM3.7,EQUIPMENT-BEDROOM,BEDROOM3.7,26.25,0.7,112.875,4.300,153.209,0.000,0.250,0.000,0.750,General,0.000,112.875
 ElectricEquipment Internal Gains Nominal, BEDROOM3.8,EQUIPMENT-BEDROOM,BEDROOM3.8,26.25,0.7,112.875,4.300,153.209,0.000,0.250,0.000,0.750,General,0.000,112.875
 ElectricEquipment Internal Gains Nominal, BEDROOM3.9,EQUIPMENT-BEDROOM,BEDROOM3.9,18.00,0.5,77.400,4.300,153.209,0.000,0.250,0.000,0.750,General,0.000,77.400
 ElectricEquipment Internal Gains Nominal, BEDROOM3.10,EQUIPMENT-BEDROOM,BEDROOM3.10,15.00,0.4,64.500,4.300,153.209,0.000,0.250,0.000,0.750,General,0.000,64.500
 ElectricEquipment Internal Gains Nominal, BEDROOM3.11,EQUIPMENT-BEDROOM,BEDROOM3.11,15.00,0.4,64.500,4.300,153.209,0.000,0.250,0.000,0.750,General,0.000,64.500
 ElectricEquipment Internal Gains Nominal, BEDROOM3.12,EQUIPMENT-BEDROOM,BEDROOM3.12,18.00,0.5,77.400,4.300,153.209,0.000,0.250,0.000,0.750,General,0.000,77.400
! <Shadowing/Sun Position Calculations Annual Simulations>, Calculation Method, Value {days}, Allowable Number Figures in Shadow Overlap {}, Polygon Clipping Algorithm, Sky Diffuse Modeling Algorithm
Shadowing/Sun Position Calculations Annual Simulations,AverageOverDaysInFrequency,20,15000,SutherlandHodgman,SimpleSkyDiffuseModeling
! <ZoneInfiltration Airflow Stats Nominal>,Name,Schedule Name,Zone Name, Zone Floor Area {m2}, # Zone Occupants,Design Volume Flow Rate {m3/s},Volume Flow Rate/Floor Area {m3/s/m2},Volume Flow Rate/Exterior Surface Area {m3/s/m2},ACH - Air Changes per Hour,Equation A - Constant Term Coefficient {},Equation B - Temperature Term Coefficient {1/C},Equation C - Velocity Term Coefficient {s/m}, Equation D - Velocity Squared Term Coefficient {s2/m2}
 ZoneInfiltration Airflow Stats Nominal, KITCHEN1.1,ALWAYS ON,KITCHEN1.1,10.80,0.3,9.000E-003,8.333E-004,N/A,1.000,0.606,3.600E-002,0.118,0.000
 ZoneInfiltration Airflow Stats Nominal, KITCHEN1.2,ALWAYS ON,KITCHEN1.2,10.80,0.3,9.000E-003,8.333E-004,N/A,1.000,0.606,3.600E-002,0.118,0.000
 ZoneInfiltration Airflow Stats Nominal, KITCHEN1.3,ALWAYS ON,KITCHEN1.3,10.80,0.3,9.000E-003,8.333E-004,N/A,1.000,0.606,3.600E-002,0.118,0.000
 ZoneInfiltration Airflow Stats Nominal, KITCHEN1.4,ALWAYS ON,KITCHEN1.4,10.80,0.3,9.000E-003,8.333E-004,N/A,1.000,0.606,3.600E-002,0.118,0.000
 ZoneInfiltration Airflow Stats Nominal, LIVINGROOM1.1,ALWAYS ON,LIVINGROOM1.1,38.70,1.1,3.225E-002,8.333E-004,2.389E-003,1.000,0.606,3.600E-002,0.118,0.000
 ZoneInfiltration Airflow Stats Nominal, LIVINGROOM1.2,ALWAYS ON,LIVINGROOM1.2,38.70,1.1,3.225E-002,8.333E-004,2.389E-003,1.000,0.606,3.600E-002,0.118,0.000
 ZoneInfiltration Airflow Stats Nominal, LIVINGROOM1.3,ALWAYS ON,LIVINGROOM1.3,38.70,1.1,3.225E-002,8.333E-004,2.389E-003,1.000,0.606,3.600E-002,0.118,0.000
 ZoneInfiltration Airflow Stats Nominal, LIVINGROOM1.4,ALWAYS ON,LIVINGROOM1.4,38.70,1.1,3.225E-002,8.333E-004,2.389E-003,1.000,0.606,3.600E-002,0.118,0.000
 ZoneInfiltration Airflow Stats Nominal, BEDROOM1.1,ALWAYS ON,BEDROOM1.1,18.00,0.5,1.500E-002,8.333E-004,5.556E-004,1.000,0.606,3.600E-002,0.118,0.000
 ZoneInfiltration Airflow Stats Nominal, BEDROOM1.2,ALWAYS ON,BEDROOM1.2,15.00,0.4,1.250E-002,8.333E-004,8.333E-004,1.000,0.606,3.600E-002,0.118,0.000
 ZoneInfiltration Airflow Stats Nominal, BEDROOM1.3,ALWAYS ON,BEDROOM1.3,15.00,0.4,1.250E-002,8.333E-004,8.333E-004,1.000,0.606,3.600E-002,0.118,0.000
 ZoneInfiltration Airflow Stats Nominal, BEDROOM1.4,ALWAYS ON,BEDROOM1.4,18.00,0.5,1.500E-002,8.333E-004,5.556E-004,1.000,0.606,3.600E-002,0.118,0.000
 ZoneInfiltration Airflow Stats Nominal, BEDROOM1.5,ALWAYS ON,BEDROOM1.5,26.25,0.7,2.188E-002,8.333E-004,2.083E-003,1.000,0.606,3.600E-002,0.118,0.000
 ZoneInfiltration Airflow Stats Nominal, BEDROOM1.6,ALWAYS ON,BEDROOM1.6,26.25,0.7,2.188E-002,8.333E-004,2.083E-003,1.000,0.606,3.600E-002,0.118,0.000
 ZoneInfiltration Airflow Stats Nominal, BEDROOM1.7,ALWAYS ON,BEDROOM1.7,26.25,0.7,2.187E-002,8.333E-004,2.083E-003,1.000,0.606,3.600E-002,0.118,0.000
 ZoneInfiltration Airflow Stats Nominal, BEDROOM1.8,ALWAYS ON,BEDROOM1.8,26.25,0.7,2.188E-002,8.333E-004,2.083E-003,1.000,0.606,3.600E-002,0.118,0.000
 ZoneInfiltration Airflow Stats Nominal, BEDROOM1.9,ALWAYS ON,BEDROOM1.9,18.00,0.5,1.500E-002,8.333E-004,5.556E-004,1.000,0.606,3.600E-002,0.118,0.000
 ZoneInfiltration Airflow Stats Nominal, BEDROOM1.10,ALWAYS ON,BEDROOM1.10,15.00,0.4,1.250E-002,8.333E-004,8.333E-004,1.000,0.606,3.600E-002,0.118,0.000
 ZoneInfiltration Airflow Stats Nominal, BEDROOM1.11,ALWAYS ON,BEDROOM1.11,15.00,0.4,1.250E-002,8.333E-004,8.333E-004,1.000,0.606,3.600E-002,0.118,0.000
 ZoneInfiltration Airflow Stats Nominal, BEDROOM1.12,ALWAYS ON,BEDROOM1.12,18.00,0.5,1.500E-002,8.333E-004,5.556E-004,1.000,0.606,3.600E-002,0.118,0.000
 ZoneInfiltration Airflow Stats Nominal, KITCHEN2.1,ALWAYS ON,KITCHEN2.1,10.80,0.3,9.000E-003,8.333E-004,N/A,1.000,0.606,3.600E-002,0.118,0.000
 ZoneInfiltration Airflow Stats Nominal, KITCHEN2.2,ALWAYS ON,KITCHEN2.2,10.80,0.3,9.000E-003,8.333E-004,N/A,1.000,0.606,3.600E-002,0.118,0.000
 ZoneInfiltration Airflow Stats Nominal, KITCHEN2.3,ALWAYS ON,KITCHEN2.3,10.80,0.3,9.000E-003,8.333E-004,N/A,1.000,0.606,3.600E-002,0.118,0.000
 ZoneInfiltration Airflow Stats Nominal, KITCHEN2.4,ALWAYS ON,KITCHEN2.4,10.80,0.3,9.000E-003,8.333E-004,N/A,1.000,0.606,3.600E-002,0.118,0.000
 ZoneInfiltration Airflow Stats Nominal, LIVINGROOM2.1,ALWAYS ON,LIVINGROOM2.1,38.70,1.1,3.225E-002,8.333E-004,2.389E-003,1.000,0.606,3.600E-002,0.118,0.000
 ZoneInfiltration Airflow Stats Nominal, LIVINGROOM2.2,ALWAYS ON,LIVINGROOM2.2,38.70,1.1,3.225E-002,8.333E-004,2.389E-003,1.000,0.606,3.600E-002,0.118,0.000
 ZoneInfiltration Airflow Stats Nominal, LIVINGROOM2.3,ALWAYS ON,LIVINGROOM2.3,38.70,1.1,3.225E-002,8.333E-004,2.389E-003,1.000,0.606,3.600E-002,0.118,0.000
 ZoneInfiltration Airflow Stats Nominal, LIVINGROOM2.4,ALWAYS ON,LIVINGROOM2.4,38.70,1.1,3.225E-002,8.333E-004,2.389E-003,1.000,0.606,3.600E-002,0.118,0.000
 ZoneInfiltration Airflow Stats Nominal, BEDROOM2.1,ALWAYS ON,BEDROOM2.1,18.00,0.5,1.500E-002,8.333E-004,5.556E-004,1.000,0.606,3.600E-002,0.118,0.000
 ZoneInfiltration Airflow Stats Nominal, BEDROOM2.2,ALWAYS ON,BEDROOM2.2,15.00,0.4,1.250E-002,8.333E-004,8.333E-004,1.000,0.606,3.600E-002,0.118,0.000
 ZoneInfiltration Airflow Stats Nominal, BEDROOM2.3,ALWAYS ON,BEDROOM2.3,15.00,0.4,1.250E-002,8.333E-004,8.333E-004,1.000,0.606,3.600E-002,0.118,0.000
 ZoneInfiltration Airflow Stats Nominal, BEDROOM2.4,ALWAYS ON,BEDROOM2.4,18.00,0.5,1.500E-002,8.333E-004,5.556E-004,1.000,0.606,3.600E-002,0.118,0.000
 ZoneInfiltration Airflow Stats Nominal, BEDROOM2.5,ALWAYS ON,BEDROOM2.5,26.25,0.7,2.188E-002,8.333E-004,2.083E-003,1.000,0.606,3.600E-002,0.118,0.000
 ZoneInfiltration Airflow Stats Nominal, BEDROOM2.6,ALWAYS ON,BEDROOM2.6,26.25,0.7,2.188E-002,8.333E-004,2.083E-003,1.000,0.606,3.600E-002,0.118,0.000
 ZoneInfiltration Airflow Stats Nominal, BEDROOM2.7,ALWAYS ON,BEDROOM2.7,26.25,0.7,2.187E-002,8.333E-004,2.083E-003,1.000,0.606,3.600E-002,0.118,0.000
 ZoneInfiltration Airflow Stats Nominal, BEDROOM2.8,ALWAYS ON,BEDROOM2.8,26.25,0.7,2.188E-002,8.333E-004,2.083E-003,1.000,0.606,3.600E-002,0.118,0.000
 ZoneInfiltration Airflow Stats Nominal, BEDROOM2.9,ALWAYS ON,BEDROOM2.9,18.00,0.5,1.500E-002,8.333E-004,5.556E-004,1.000,0.606,3.600E-002,0.118,0.000
 ZoneInfiltration Airflow Stats Nominal, BEDROOM2.10,ALWAYS ON,BEDROOM2.10,15.00,0.4,1.250E-002,8.333E-004,8.333E-004,1.000,0.606,3.600E-002,0.118,0.000
 ZoneInfiltration Airflow Stats Nominal, BEDROOM2.11,ALWAYS ON,BEDROOM2.11,15.00,0.4,1.250E-002,8.333E-004,8.333E-004,1.000,0.606,3.600E-002,0.118,0.000
 ZoneInfiltration Airflow Stats Nominal, BEDROOM2.12,ALWAYS ON,BEDROOM2.12,18.00,0.5,1.500E-002,8.333E-004,5.556E-004,1.000,0.606,3.600E-002,0.118,0.000
 ZoneInfiltration Airflow Stats Nominal, KITCHEN3.1,ALWAYS ON,KITCHEN3.1,10.80,0.3,9.000E-003,8.333E-004,8.333E-004,1.000,0.606,3.600E-002,0.118,0.000
 ZoneInfiltration Airflow Stats Nominal, KITCHEN3.2,ALWAYS ON,KITCHEN3.2,10.80,0.3,9.000E-003,8.333E-004,8.333E-004,1.000,0.606,3.600E-002,0.118,0.000
 ZoneInfiltration Airflow Stats Nominal, KITCHEN3.3,ALWAYS ON,KITCHEN3.3,10.80,0.3,9.000E-003,8.333E-004,8.333E-004,1.000,0.606,3.600E-002,0.118,0.000
 ZoneInfiltration Airflow Stats Nominal, KITCHEN3.4,ALWAYS ON,KITCHEN3.4,10.80,0.3,9.000E-003,8.333E-004,8.333E-004,1.000,0.606,3.600E-002,0.118,0.000
 ZoneInfiltration Airflow Stats Nominal, LIVINGROOM3.1,ALWAYS ON,LIVINGROOM3.1,38.70,1.1,3.225E-002,8.333E-004,6.178E-004,1.000,0.606,3.600E-002,0.118,0.000
 ZoneInfiltration Airflow Stats Nominal, LIVINGROOM3.2,ALWAYS ON,LIVINGROOM3.2,38.70,1.1,3.225E-002,8.333E-004,6.178E-004,1.000,0.606,3.600E-002,0.118,0.000
 ZoneInfiltration Airflow Stats Nominal, LIVINGROOM3.3,ALWAYS ON,LIVINGROOM3.3,38.70,1.1,3.225E-002,8.333E-004,6.178E-004,1.000,0.606,3.600E-002,0.118,0.000
 ZoneInfiltration Airflow Stats Nominal, LIVINGROOM3.4,ALWAYS ON,LIVINGROOM3.4,38.70,1.1,3.225E-002,8.333E-004,6.178E-004,1.000,0.606,3.600E-002,0.118,0.000
 ZoneInfiltration Airflow Stats Nominal, BEDROOM3.1,ALWAYS ON,BEDROOM3.1,18.00,0.5,1.500E-002,8.333E-004,3.333E-004,1.000,0.606,3.600E-002,0.118,0.000
 ZoneInfiltration Airflow Stats Nominal, BEDROOM3.2,ALWAYS ON,BEDROOM3.2,15.00,0.4,1.250E-002,8.333E-004,4.167E-004,1.000,0.606,3.600E-002,0.118,0.000
 ZoneInfiltration Airflow Stats Nominal, BEDROOM3.3,ALWAYS ON,BEDROOM3.3,15.00,0.4,1.250E-002,8.333E-004,4.167E-004,1.000,0.606,3.600E-002,0.118,0.000
 ZoneInfiltration Airflow Stats Nominal, BEDROOM3.4,ALWAYS ON,BEDROOM3.4,18.00,0.5,1.500E-002,8.333E-004,3.333E-004,1.000,0.606,3.600E-002,0.118,0.000
 ZoneInfiltration Airflow Stats Nominal, BEDROOM3.5,ALWAYS ON,BEDROOM3.5,26.25,0.7,2.188E-002,8.333E-004,5.952E-004,1.000,0.606,3.600E-002,0.118,0.000
 ZoneInfiltration Airflow Stats Nominal, BEDROOM3.6,ALWAYS ON,BEDROOM3.6,26.25,0.7,2.188E-002,8.333E-004,5.952E-004,1.000,0.606,3.600E-002,0.118,0.000
 ZoneInfiltration Airflow Stats Nominal, BEDROOM3.7,ALWAYS ON,BEDROOM3.7,26.25,0.7,2.187E-002,8.333E-004,5.952E-004,1.000,0.606,3.600E-002,0.118,0.000
 ZoneInfiltration Airflow Stats Nominal, BEDROOM3.8,ALWAYS ON,BEDROOM3.8,26.25,0.7,2.188E-002,8.333E-004,5.952E-004,1.000,0.606,3.600E-002,0.118,0.000
 ZoneInfiltration Airflow Stats Nominal, BEDROOM3.9,ALWAYS ON,BEDROOM3.9,18.00,0.5,1.500E-002,8.333E-004,3.333E-004,1.000,0.606,3.600E-002,0.118,0.000
 ZoneInfiltration Airflow Stats Nominal, BEDROOM3.10,ALWAYS ON,BEDROOM3.10,15.00,0.4,1.250E-002,8.333E-004,4.167E-004,1.000,0.606,3.600E-002,0.118,0.000
 ZoneInfiltration Airflow Stats Nominal, BEDROOM3.11,ALWAYS ON,BEDROOM3.11,15.00,0.4,1.250E-002,8.333E-004,4.167E-004,1.000,0.606,3.600E-002,0.118,0.000
 ZoneInfiltration Airflow Stats Nominal, BEDROOM3.12,ALWAYS ON,BEDROOM3.12,18.00,0.5,1.500E-002,8.333E-004,3.333E-004,1.000,0.606,3.600E-002,0.118,0.000
! <ZoneVentilation Airflow Stats Nominal>,Name,Schedule Name,Zone Name, Zone Floor Area {m2}, # Zone Occupants,Design Volume Flow Rate {m3/s},Volume Flow Rate/Floor Area {m3/s/m2},Volume Flow Rate/person Area {m3/s/person},ACH - Air Changes per Hour,Fan Type {Exhaust;Intake;Natural},Fan Pressure Rise {Pa},Fan Efficiency {},Equation A - Constant Term Coefficient {},Equation B - Temperature Term Coefficient {1/C},Equation C - Velocity Term Coefficient {s/m}, Equation D - Velocity Squared Term Coefficient {s2/m2},Minimum Indoor Temperature{C}/Schedule,Maximum Indoor Temperature{C}/Schedule,Delta Temperature{C}/Schedule,Minimum Outdoor Temperature{C}/Schedule,Maximum Outdoor Temperature{C}/Schedule,Maximum WindSpeed{m/s}
 ZoneVentilation Airflow Stats Nominal, JICHUKITCHEN1.1,JICHUTONGFENGQITA,KITCHEN1.1,10.80,0.3,3.600E-002,3.333E-003,0.119,4.000,Natural,0.000,1.0,0.606,3.600E-002,0.118,0.000,-100.00,100.00,-100.00,-100.00,100.00,40.00
 ZoneVentilation Airflow Stats Nominal, JICHUKITCHEN1.2,JICHUTONGFENGQITA,KITCHEN1.2,10.80,0.3,3.600E-002,3.333E-003,0.119,4.000,Natural,0.000,1.0,0.606,3.600E-002,0.118,0.000,-100.00,100.00,-100.00,-100.00,100.00,40.00
 ZoneVentilation Airflow Stats Nominal, JICHUKITCHEN1.3,JICHUTONGFENGQITA,KITCHEN1.3,10.80,0.3,3.600E-002,3.333E-003,0.119,4.000,Natural,0.000,1.0,0.606,3.600E-002,0.118,0.000,-100.00,100.00,-100.00,-100.00,100.00,40.00
 ZoneVentilation Airflow Stats Nominal, JICHUKITCHEN1.4,JICHUTONGFENGQITA,KITCHEN1.4,10.80,0.3,3.600E-002,3.333E-003,0.119,4.000,Natural,0.000,1.0,0.606,3.600E-002,0.118,0.000,-100.00,100.00,-100.00,-100.00,100.00,40.00
 ZoneVentilation Airflow Stats Nominal, JICHULIVINGROOM1.1,JICHUTONGFENGKETING,LIVINGROOM1.1,38.70,1.1,0.129,3.333E-003,0.119,4.000,Natural,0.000,1.0,0.606,3.600E-002,0.118,0.000,-100.00,100.00,-100.00,-100.00,100.00,40.00
 ZoneVentilation Airflow Stats Nominal, JICHULIVINGROOM1.2,JICHUTONGFENGKETING,LIVINGROOM1.2,38.70,1.1,0.129,3.333E-003,0.119,4.000,Natural,0.000,1.0,0.606,3.600E-002,0.118,0.000,-100.00,100.00,-100.00,-100.00,100.00,40.00
 ZoneVentilation Airflow Stats Nominal, JICHULIVINGROOM1.3,JICHUTONGFENGKETING,LIVINGROOM1.3,38.70,1.1,0.129,3.333E-003,0.119,4.000,Natural,0.000,1.0,0.606,3.600E-002,0.118,0.000,-100.00,100.00,-100.00,-100.00,100.00,40.00
 ZoneVentilation Airflow Stats Nominal, JICHULIVINGROOM1.4,JICHUTONGFENGKETING,LIVINGROOM1.4,38.70,1.1,0.129,3.333E-003,0.119,4.000,Natural,0.000,1.0,0.606,3.600E-002,0.118,0.000,-100.00,100.00,-100.00,-100.00,100.00,40.00
 ZoneVentilation Airflow Stats Nominal, JICHUBEDROOM1.1,JICHUTONGFENGBEDROOM,BEDROOM1.1,18.00,0.5,6.000E-002,3.333E-003,0.119,4.000,Natural,0.000,1.0,0.606,3.600E-002,0.118,0.000,-100.00,100.00,-100.00,-100.00,100.00,40.00
 ZoneVentilation Airflow Stats Nominal, JICHUBEDROOM1.2,JICHUTONGFENGBEDROOM,BEDROOM1.2,15.00,0.4,5.000E-002,3.333E-003,0.119,4.000,Natural,0.000,1.0,0.606,3.600E-002,0.118,0.000,-100.00,100.00,-100.00,-100.00,100.00,40.00
 ZoneVentilation Airflow Stats Nominal, JICHUBEDROOM1.3,JICHUTONGFENGBEDROOM,BEDROOM1.3,15.00,0.4,5.000E-002,3.333E-003,0.119,4.000,Natural,0.000,1.0,0.606,3.600E-002,0.118,0.000,-100.00,100.00,-100.00,-100.00,100.00,40.00
 ZoneVentilation Airflow Stats Nominal, JICHUBEDROOM1.4,JICHUTONGFENGBEDROOM,BEDROOM1.4,18.00,0.5,6.000E-002,3.333E-003,0.119,4.000,Natural,0.000,1.0,0.606,3.600E-002,0.118,0.000,-100.00,100.00,-100.00,-100.00,100.00,40.00
 ZoneVentilation Airflow Stats Nominal, JICHUBEDROOM1.5,JICHUTONGFENGBEDROOM,BEDROOM1.5,26.25,0.7,8.750E-002,3.333E-003,0.119,4.000,Natural,0.000,1.0,0.606,3.600E-002,0.118,0.000,-100.00,100.00,-100.00,-100.00,100.00,40.00
 ZoneVentilation Airflow Stats Nominal, JICHUBEDROOM1.6,JICHUTONGFENGBEDROOM,BEDROOM1.6,26.25,0.7,8.750E-002,3.333E-003,0.119,4.000,Natural,0.000,1.0,0.606,3.600E-002,0.118,0.000,-100.00,100.00,-100.00,-100.00,100.00,40.00
 ZoneVentilation Airflow Stats Nominal, JICHUBEDROOM1.7,JICHUTONGFENGBEDROOM,BEDROOM1.7,26.25,0.7,8.750E-002,3.333E-003,0.119,4.000,Natural,0.000,1.0,0.606,3.600E-002,0.118,0.000,-100.00,100.00,-100.00,-100.00,100.00,40.00
 ZoneVentilation Airflow Stats Nominal, JICHUBEDROOM1.8,JICHUTONGFENGBEDROOM,BEDROOM1.8,26.25,0.7,8.750E-002,3.333E-003,0.119,4.000,Natural,0.000,1.0,0.606,3.600E-002,0.118,0.000,-100.00,100.00,-100.00,-100.00,100.00,40.00
 ZoneVentilation Airflow Stats Nominal, JICHUBEDROOM1.9,JICHUTONGFENGBEDROOM,BEDROOM1.9,18.00,0.5,6.000E-002,3.333E-003,0.119,4.000,Natural,0.000,1.0,0.606,3.600E-002,0.118,0.000,-100.00,100.00,-100.00,-100.00,100.00,40.00
 ZoneVentilation Airflow Stats Nominal, JICHUBEDROOM1.10,JICHUTONGFENGBEDROOM,BEDROOM1.10,15.00,0.4,5.000E-002,3.333E-003,0.119,4.000,Natural,0.000,1.0,0.606,3.600E-002,0.118,0.000,-100.00,100.00,-100.00,-100.00,100.00,40.00
 ZoneVentilation Airflow Stats Nominal, JICHUBEDROOM1.11,JICHUTONGFENGBEDROOM,BEDROOM1.11,15.00,0.4,5.000E-002,3.333E-003,0.119,4.000,Natural,0.000,1.0,0.606,3.600E-002,0.118,0.000,-100.00,100.00,-100.00,-100.00,100.00,40.00
 ZoneVentilation Airflow Stats Nominal, JICHUBEDROOM1.12,JICHUTONGFENGBEDROOM,BEDROOM1.12,18.00,0.5,6.000E-002,3.333E-003,0.119,4.000,Natural,0.000,1.0,0.606,3.600E-002,0.118,0.000,-100.00,100.00,-100.00,-100.00,100.00,40.00
 ZoneVentilation Airflow Stats Nominal, JICHUKITCHEN2.1,JICHUTONGFENGQITA,KITCHEN2.1,10.80,0.3,3.600E-002,3.333E-003,0.119,4.000,Natural,0.000,1.0,0.606,3.600E-002,0.118,0.000,-100.00,100.00,-100.00,-100.00,100.00,40.00
 ZoneVentilation Airflow Stats Nominal, JICHUKITCHEN2.2,JICHUTONGFENGQITA,KITCHEN2.2,10.80,0.3,3.600E-002,3.333E-003,0.119,4.000,Natural,0.000,1.0,0.606,3.600E-002,0.118,0.000,-100.00,100.00,-100.00,-100.00,100.00,40.00
 ZoneVentilation Airflow Stats Nominal, JICHUKITCHEN2.3,JICHUTONGFENGQITA,KITCHEN2.3,10.80,0.3,3.600E-002,3.333E-003,0.119,4.000,Natural,0.000,1.0,0.606,3.600E-002,0.118,0.000,-100.00,100.00,-100.00,-100.00,100.00,40.00
 ZoneVentilation Airflow Stats Nominal, JICHUKITCHEN2.4,JICHUTONGFENGQITA,KITCHEN2.4,10.80,0.3,3.600E-002,3.333E-003,0.119,4.000,Natural,0.000,1.0,0.606,3.600E-002,0.118,0.000,-100.00,100.00,-100.00,-100.00,100.00,40.00
 ZoneVentilation Airflow Stats Nominal, JICHULIVINGROOM2.1,JICHUTONGFENGKETING,LIVINGROOM2.1,38.70,1.1,0.129,3.333E-003,0.119,4.000,Natural,0.000,1.0,0.606,3.600E-002,0.118,0.000,-100.00,100.00,-100.00,-100.00,100.00,40.00
 ZoneVentilation Airflow Stats Nominal, JICHULIVINGROOM2.2,JICHUTONGFENGKETING,LIVINGROOM2.2,38.70,1.1,0.129,3.333E-003,0.119,4.000,Natural,0.000,1.0,0.606,3.600E-002,0.118,0.000,-100.00,100.00,-100.00,-100.00,100.00,40.00
 ZoneVentilation Airflow Stats Nominal, JICHULIVINGROOM2.3,JICHUTONGFENGKETING,LIVINGROOM2.3,38.70,1.1,0.129,3.333E-003,0.119,4.000,Natural,0.000,1.0,0.606,3.600E-002,0.118,0.000,-100.00,100.00,-100.00,-100.00,100.00,40.00
 ZoneVentilation Airflow Stats Nominal, JICHULIVINGROOM2.4,JICHUTONGFENGKETING,LIVINGROOM2.4,38.70,1.1,0.129,3.333E-003,0.119,4.000,Natural,0.000,1.0,0.606,3.600E-002,0.118,0.000,-100.00,100.00,-100.00,-100.00,100.00,40.00
 ZoneVentilation Airflow Stats Nominal, JICHUBEDROOM2.1,JICHUTONGFENGBEDROOM,BEDROOM2.1,18.00,0.5,6.000E-002,3.333E-003,0.119,4.000,Natural,0.000,1.0,0.606,3.600E-002,0.118,0.000,-100.00,100.00,-100.00,-100.00,100.00,40.00
 ZoneVentilation Airflow Stats Nominal, JICHUBEDROOM2.2,JICHUTONGFENGBEDROOM,BEDROOM2.2,15.00,0.4,5.000E-002,3.333E-003,0.119,4.000,Natural,0.000,1.0,0.606,3.600E-002,0.118,0.000,-100.00,100.00,-100.00,-100.00,100.00,40.00
 ZoneVentilation Airflow Stats Nominal, JICHUBEDROOM2.3,JICHUTONGFENGBEDROOM,BEDROOM2.3,15.00,0.4,5.000E-002,3.333E-003,0.119,4.000,Natural,0.000,1.0,0.606,3.600E-002,0.118,0.000,-100.00,100.00,-100.00,-100.00,100.00,40.00
 ZoneVentilation Airflow Stats Nominal, JICHUBEDROOM2.4,JICHUTONGFENGBEDROOM,BEDROOM2.4,18.00,0.5,6.000E-002,3.333E-003,0.119,4.000,Natural,0.000,1.0,0.606,3.600E-002,0.118,0.000,-100.00,100.00,-100.00,-100.00,100.00,40.00
 ZoneVentilation Airflow Stats Nominal, JICHUBEDROOM2.5,JICHUTONGFENGBEDROOM,BEDROOM2.5,26.25,0.7,8.750E-002,3.333E-003,0.119,4.000,Natural,0.000,1.0,0.606,3.600E-002,0.118,0.000,-100.00,100.00,-100.00,-100.00,100.00,40.00
 ZoneVentilation Airflow Stats Nominal, JICHUBEDROOM2.6,JICHUTONGFENGBEDROOM,BEDROOM2.6,26.25,0.7,8.750E-002,3.333E-003,0.119,4.000,Natural,0.000,1.0,0.606,3.600E-002,0.118,0.000,-100.00,100.00,-100.00,-100.00,100.00,40.00
 ZoneVentilation Airflow Stats Nominal, JICHUBEDROOM2.7,JICHUTONGFENGBEDROOM,BEDROOM2.7,26.25,0.7,8.750E-002,3.333E-003,0.119,4.000,Natural,0.000,1.0,0.606,3.600E-002,0.118,0.000,-100.00,100.00,-100.00,-100.00,100.00,40.00
 ZoneVentilation Airflow Stats Nominal, JICHUBEDROOM2.8,JICHUTONGFENGBEDROOM,BEDROOM2.8,26.25,0.7,8.750E-002,3.333E-003,0.119,4.000,Natural,0.000,1.0,0.606,3.600E-002,0.118,0.000,-100.00,100.00,-100.00,-100.00,100.00,40.00
 ZoneVentilation Airflow Stats Nominal, JICHUBEDROOM2.9,JICHUTONGFENGBEDROOM,BEDROOM2.9,18.00,0.5,6.000E-002,3.333E-003,0.119,4.000,Natural,0.000,1.0,0.606,3.600E-002,0.118,0.000,-100.00,100.00,-100.00,-100.00,100.00,40.00
 ZoneVentilation Airflow Stats Nominal, JICHUBEDROOM2.10,JICHUTONGFENGBEDROOM,BEDROOM2.10,15.00,0.4,5.000E-002,3.333E-003,0.119,4.000,Natural,0.000,1.0,0.606,3.600E-002,0.118,0.000,-100.00,100.00,-100.00,-100.00,100.00,40.00
 ZoneVentilation Airflow Stats Nominal, JICHUBEDROOM2.11,JICHUTONGFENGBEDROOM,BEDROOM2.11,15.00,0.4,5.000E-002,3.333E-003,0.119,4.000,Natural,0.000,1.0,0.606,3.600E-002,0.118,0.000,-100.00,100.00,-100.00,-100.00,100.00,40.00
 ZoneVentilation Airflow Stats Nominal, JICHUBEDROOM2.12,JICHUTONGFENGBEDROOM,BEDROOM2.12,18.00,0.5,6.000E-002,3.333E-003,0.119,4.000,Natural,0.000,1.0,0.606,3.600E-002,0.118,0.000,-100.00,100.00,-100.00,-100.00,100.00,40.00
 ZoneVentilation Airflow Stats Nominal, JICHUKITCHEN3.1,JICHUTONGFENGQITA,KITCHEN3.1,10.80,0.3,3.600E-002,3.333E-003,0.119,4.000,Natural,0.000,1.0,0.606,3.600E-002,0.118,0.000,-100.00,100.00,-100.00,-100.00,100.00,40.00
 ZoneVentilation Airflow Stats Nominal, JICHUKITCHEN3.2,JICHUTONGFENGQITA,KITCHEN3.2,10.80,0.3,3.600E-002,3.333E-003,0.119,4.000,Natural,0.000,1.0,0.606,3.600E-002,0.118,0.000,-100.00,100.00,-100.00,-100.00,100.00,40.00
 ZoneVentilation Airflow Stats Nominal, JICHUKITCHEN3.3,JICHUTONGFENGQITA,KITCHEN3.3,10.80,0.3,3.600E-002,3.333E-003,0.119,4.000,Natural,0.000,1.0,0.606,3.600E-002,0.118,0.000,-100.00,100.00,-100.00,-100.00,100.00,40.00
 ZoneVentilation Airflow Stats Nominal, JICHUKITCHEN3.4,JICHUTONGFENGQITA,KITCHEN3.4,10.80,0.3,3.600E-002,3.333E-003,0.119,4.000,Natural,0.000,1.0,0.606,3.600E-002,0.118,0.000,-100.00,100.00,-100.00,-100.00,100.00,40.00
 ZoneVentilation Airflow Stats Nominal, JICHULIVINGROOM3.1,JICHUTONGFENGKETING,LIVINGROOM3.1,38.70,1.1,0.129,3.333E-003,0.119,4.000,Natural,0.000,1.0,0.606,3.600E-002,0.118,0.000,-100.00,100.00,-100.00,-100.00,100.00,40.00
 ZoneVentilation Airflow Stats Nominal, JICHULIVINGROOM3.2,JICHUTONGFENGKETING,LIVINGROOM3.2,38.70,1.1,0.129,3.333E-003,0.119,4.000,Natural,0.000,1.0,0.606,3.600E-002,0.118,0.000,-100.00,100.00,-100.00,-100.00,100.00,40.00
 ZoneVentilation Airflow Stats Nominal, JICHULIVINGROOM3.3,JICHUTONGFENGKETING,LIVINGROOM3.3,38.70,1.1,0.129,3.333E-003,0.119,4.000,Natural,0.000,1.0,0.606,3.600E-002,0.118,0.000,-100.00,100.00,-100.00,-100.00,100.00,40.00
 ZoneVentilation Airflow Stats Nominal, JICHULIVINGROOM3.4,JICHUTONGFENGKETING,LIVINGROOM3.4,38.70,1.1,0.129,3.333E-003,0.119,4.000,Natural,0.000,1.0,0.606,3.600E-002,0.118,0.000,-100.00,100.00,-100.00,-100.00,100.00,40.00
 ZoneVentilation Airflow Stats Nominal, JICHUBEDROOM3.1,JICHUTONGFENGBEDROOM,BEDROOM3.1,18.00,0.5,6.000E-002,3.333E-003,0.119,4.000,Natural,0.000,1.0,0.606,3.600E-002,0.118,0.000,-100.00,100.00,-100.00,-100.00,100.00,40.00
 ZoneVentilation Airflow Stats Nominal, JICHUBEDROOM3.2,JICHUTONGFENGBEDROOM,BEDROOM3.2,15.00,0.4,5.000E-002,3.333E-003,0.119,4.000,Natural,0.000,1.0,0.606,3.600E-002,0.118,0.000,-100.00,100.00,-100.00,-100.00,100.00,40.00
[...]
 ZoneVentilation Airflow Stats Nominal, LIVINGROOM2.1,TONGFENGCISHUBIANLIANG,LIVINGROOM2.1,38.70,1.1,0.831,2.148E-002,0.765,25.776,Natural,0.000,1.0,0.606,3.600E-002,0.118,0.000,-100.00,100.00,-100.00,15.37,28.78,40.00
 ZoneVentilation Airflow Stats Nominal, LIVINGROOM2.2,TONGFENGCISHUBIANLIANG,LIVINGROOM2.2,38.70,1.1,0.831,2.148E-002,0.765,25.776,Natural,0.000,1.0,0.606,3.600E-002,0.118,0.000,-100.00,100.00,-100.00,15.37,28.78,40.00
 ZoneVentilation Airflow Stats Nominal, LIVINGROOM2.3,TONGFENGCISHUBIANLIANG,LIVINGROOM2.3,38.70,1.1,0.831,2.148E-002,0.765,25.776,Natural,0.000,1.0,0.606,3.600E-002,0.118,0.000,-100.00,100.00,-100.00,15.37,28.78,40.00
 ZoneVentilation Airflow Stats Nominal, LIVINGROOM2.4,TONGFENGCISHUBIANLIANG,LIVINGROOM2.4,38.70,1.1,0.831,2.148E-002,0.765,25.776,Natural,0.000,1.0,0.606,3.600E-002,0.118,0.000,-100.00,100.00,-100.00,15.37,28.78,40.00
 ZoneVentilation Airflow Stats Nominal, BEDROOM2.1,TONGFENGCISHUBIANLIANG,BEDROOM2.1,18.00,0.5,0.387,2.148E-002,0.765,25.776,Natural,0.000,1.0,0.606,3.600E-002,0.118,0.000,-100.00,100.00,-100.00,15.37,28.78,40.00
 ZoneVentilation Airflow Stats Nominal, BEDROOM2.2,TONGFENGCISHUBIANLIANG,BEDROOM2.2,15.00,0.4,0.322,2.148E-002,0.765,25.776,Natural,0.000,1.0,0.606,3.600E-002,0.118,0.000,-100.00,100.00,-100.00,15.37,28.78,40.00
 ZoneVentilation Airflow Stats Nominal, BEDROOM2.3,TONGFENGCISHUBIANLIANG,BEDROOM2.3,15.00,0.4,0.322,2.148E-002,0.765,25.776,Natural,0.000,1.0,0.606,3.600E-002,0.118,0.000,-100.00,100.00,-100.00,15.37,28.78,40.00
 ZoneVentilation Airflow Stats Nominal, BEDROOM2.4,TONGFENGCISHUBIANLIANG,BEDROOM2.4,18.00,0.5,0.387,2.148E-002,0.765,25.776,Natural,0.000,1.0,0.606,3.600E-002,0.118,0.000,-100.00,100.00,-100.00,15.37,28.78,40.00
 ZoneVentilation Airflow Stats Nominal, BEDROOM2.5,TONGFENGCISHUBIANLIANG,BEDROOM2.5,26.25,0.7,0.564,2.148E-002,0.765,25.776,Natural,0.000,1.0,0.606,3.600E-002,0.118,0.000,-100.00,100.00,-100.00,15.37,28.78,40.00
 ZoneVentilation Airflow Stats Nominal, BEDROOM2.6,TONGFENGCISHUBIANLIANG,BEDROOM2.6,26.25,0.7,0.564,2.148E-002,0.765,25.776,Natural,0.000,1.0,0.606,3.600E-002,0.118,0.000,-100.00,100.00,-100.00,15.37,28.78,40.00
 ZoneVentilation Airflow Stats Nominal, BEDROOM2.7,TONGFENGCISHUBIANLIANG,BEDROOM2.7,26.25,0.7,0.564,2.148E-002,0.765,25.776,Natural,0.000,1.0,0.606,3.600E-002,0.118,0.000,-100.00,100.00,-100.00,15.37,28.78,40.00
 ZoneVentilation Airflow Stats Nominal, BEDROOM2.8,TONGFENGCISHUBIANLIANG,BEDROOM2.8,26.25,0.7,0.564,2.148E-002,0.765,25.776,Natural,0.000,1.0,0.606,3.600E-002,0.118,0.000,-100.00,100.00,-100.00,15.37,28.78,40.00
 ZoneVentilation Airflow Stats Nominal, BEDROOM2.9,TONGFENGCISHUBIANLIANG,BEDROOM2.9,18.00,0.5,0.387,2.148E-002,0.765,25.776,Natural,0.000,1.0,0.606,3.600E-002,0.118,0.000,-100.00,100.00,-100.00,15.37,28.78,40.00
 ZoneVentilation Airflow Stats Nominal, BEDROOM2.10,TONGFENGCISHUBIANLIANG,BEDROOM2.10,15.00,0.4,0.322,2.148E-002,0.765,25.776,Natural,0.000,1.0,0.606,3.600E-002,0.118,0.000,-100.00,100.00,-100.00,15.37,28.78,40.00
 ZoneVentilation Airflow Stats Nominal, BEDROOM2.11,TONGFENGCISHUBIANLIANG,BEDROOM2.11,15.00,0.4,0.322,2.148E-002,0.765,25.776,Natural,0.000,1.0,0.606,3.600E-002,0.118,0.000,-100.00,100.00,-100.00,15.37,28.78,40.00
 ZoneVentilation Airflow Stats Nominal, BEDROOM2.12,TONGFENGCISHUBIANLIANG,BEDROOM2.12,18.00,0.5,0.387,2.148E-002,0.765,25.776,Natural,0.000,1.0,0.606,3.600E-002,0.118,0.000,-100.00,100.00,-100.00,15.37,28.78,40.00
 ZoneVentilation Airflow Stats Nominal, KITCHEN3.1,TONGFENGCISHUBIANLIANG,KITCHEN3.1,10.80,0.3,0.232,2.148E-002,0.765,25.776,Natural,0.000,1.0,0.606,3.600E-002,0.118,0.000,-100.00,100.00,-100.00,15.37,28.78,40.00
 ZoneVentilation Airflow Stats Nominal, KITCHEN3.2,TONGFENGCISHUBIANLIANG,KITCHEN3.2,10.80,0.3,0.232,2.148E-002,0.765,25.776,Natural,0.000,1.0,0.606,3.600E-002,0.118,0.000,-100.00,100.00,-100.00,15.37,28.78,40.00
 ZoneVentilation Airflow Stats Nominal, KITCHEN3.3,TONGFENGCISHUBIANLIANG,KITCHEN3.3,10.80,0.3,0.232,2.148E-002,0.765,25.776,Natural,0.000,1.0,0.606,3.600E-002,0.118,0.000,-100.00,100.00,-100.00,15.37,28.78,40.00
 ZoneVentilation Airflow Stats Nominal, KITCHEN3.4,TONGFENGCISHUBIANLIANG,KITCHEN3.4,10.80,0.3,0.232,2.148E-002,0.765,25.776,Natural,0.000,1.0,0.606,3.600E-002,0.118,0.000,-100.00,100.00,-100.00,15.37,28.78,40.00
 ZoneVentilation Airflow Stats Nominal, LIVINGROOM3.1,TONGFENGCISHUBIANLIANG,LIVINGROOM3.1,38.70,1.1,0.831,2.148E-002,0.765,25.776,Natural,0.000,1.0,0.606,3.600E-002,0.118,0.000,-100.00,100.00,-100.00,15.37,28.78,40.00
 ZoneVentilation Airflow Stats Nominal, LIVINGROOM3.2,TONGFENGCISHUBIANLIANG,LIVINGROOM3.2,38.70,1.1,0.831,2.148E-002,0.765,25.776,Natural,0.000,1.0,0.606,3.600E-002,0.118,0.000,-100.00,100.00,-100.00,15.37,28.78,40.00
 ZoneVentilation Airflow Stats Nominal, LIVINGROOM3.3,TONGFENGCISHUBIANLIANG,LIVINGROOM3.3,38.70,1.1,0.831,2.148E-002,0.765,25.776,Natural,0.000,1.0,0.606,3.600E-002,0.118,0.000,-100.00,100.00,-100.00,15.37,28.78,40.00
 ZoneVentilation Airflow Stats Nominal, LIVINGROOM3.4,TONGFENGCISHUBIANLIANG,LIVINGROOM3.4,38.70,1.1,0.831,2.148E-002,0.765,25.776,Natural,0.000,1.0,0.606,3.600E-002,0.118,0.000,-100.00,100.00,-100.00,15.37,28.78,40.00
 ZoneVentilation Airflow Stats Nominal, BEDROOM3.1,TONGFENGCISHUBIANLIANG,BEDROOM3.1,18.00,0.5,0.387,2.148E-002,0.765,25.776,Natural,0.000,1.0,0.606,3.600E-002,0.118,0.000,-100.00,100.00,-100.00,15.37,28.78,40.00
 ZoneVentilation Airflow Stats Nominal, BEDROOM3.2,TONGFENGCISHUBIANLIANG,BEDROOM3.2,15.00,0.4,0.322,2.148E-002,0.765,25.776,Natural,0.000,1.0,0.606,3.600E-002,0.118,0.000,-100.00,100.00,-100.00,15.37,28.78,40.00
 ZoneVentilation Airflow Stats Nominal, BEDROOM3.3,TONGFENGCISHUBIANLIANG,BEDROOM3.3,15.00,0.4,0.322,2.148E-002,0.765,25.776,Natural,0.000,1.0,0.606,3.600E-002,0.118,0.000,-100.00,100.00,-100.00,15.37,28.78,40.00
 ZoneVentilation Airflow Stats Nominal, BEDROOM3.4,TONGFENGCISHUBIANLIANG,BEDROOM3.4,18.00,0.5,0.387,2.148E-002,0.765,25.776,Natural,0.000,1.0,0.606,3.600E-002,0.118,0.000,-100.00,100.00,-100.00,15.37,28.78,40.00
 ZoneVentilation Airflow Stats Nominal, BEDROOM3.5,TONGFENGCISHUBIANLIANG,BEDROOM3.5,26.25,0.7,0.564,2.148E-002,0.765,25.776,Natural,0.000,1.0,0.606,3.600E-002,0.118,0.000,-100.00,100.00,-100.00,15.37,28.78,40.00
 ZoneVentilation Airflow Stats Nominal, BEDROOM3.6,TONGFENGCISHUBIANLIANG,BEDROOM3.6,26.25,0.7,0.564,2.148E-002,0.765,25.776,Natural,0.000,1.0,0.606,3.600E-002,0.118,0.000,-100.00,100.00,-100.00,15.37,28.78,40.00
 ZoneVentilation Airflow Stats Nominal, BEDROOM3.7,TONGFENGCISHUBIANLIANG,BEDROOM3.7,26.25,0.7,0.564,2.148E-002,0.765,25.776,Natural,0.000,1.0,0.606,3.600E-002,0.118,0.000,-100.00,100.00,-100.00,15.37,28.78,40.00
 ZoneVentilation Airflow Stats Nominal, BEDROOM3.8,TONGFENGCISHUBIANLIANG,BEDROOM3.8,26.25,0.7,0.564,2.148E-002,0.765,25.776,Natural,0.000,1.0,0.606,3.600E-002,0.118,0.000,-100.00,100.00,-100.00,15.37,28.78,40.00
 ZoneVentilation Airflow Stats Nominal, BEDROOM3.9,TONGFENGCISHUBIANLIANG,BEDROOM3.9,18.00,0.5,0.387,2.148E-002,0.765,25.776,Natural,0.000,1.0,0.606,3.600E-002,0.118,0.000,-100.00,100.00,-100.00,15.37,28.78,40.00
 ZoneVentilation Airflow Stats Nominal, BEDROOM3.10,TONGFENGCISHUBIANLIANG,BEDROOM3.10,15.00,0.4,0.322,2.148E-002,0.765,25.776,Natural,0.000,1.0,0.606,3.600E-002,0.118,0.000,-100.00,100.00,-100.00,15.37,28.78,40.00
 ZoneVentilation Airflow Stats Nominal, BEDROOM3.11,TONGFENGCISHUBIANLIANG,BEDROOM3.11,15.00,0.4,0.322,2.148E-002,0.765,25.776,Natural,0.000,1.0,0.606,3.600E-002,0.118,0.000,-100.00,100.00,-100.00,15.37,28.78,40.00
 ZoneVentilation Airflow Stats Nominal, BEDROOM3.12,TONGFENGCISHUBIANLIANG,BEDROOM3.12,18.00,0.5,0.387,2.148E-002,0.765,25.776,Natural,0.000,1.0,0.606,3.600E-002,0.118,0.000,-100.00,100.00,-100.00,15.37,28.78,40.00
! <AirFlow Model>, Simple
 AirFlow Model, Simple
! <RoomAir Model>, Zone Name, Mixing/Mundt/UCSDDV/UCSDCV/UCSDUFI/UCSDUFE/User Defined
RoomAir Model,KITCHEN1.1,Mixing/Well-Stirred
RoomAir Model,BEDROOM1.4,Mixing/Well-Stirred
RoomAir Model,KITCHEN1.2,Mixing/Well-Stirred
RoomAir Model,LIVINGROOM1.2,Mixing/Well-Stirred
RoomAir Model,BEDROOM1.7,Mixing/Well-Stirred
RoomAir Model,LIVINGROOM1.3,Mixing/Well-Stirred
RoomAir Model,BEDROOM1.9,Mixing/Well-Stirred
RoomAir Model,BEDROOM1.10,Mixing/Well-Stirred
RoomAir Model,BEDROOM1.11,Mixing/Well-Stirred
RoomAir Model,BEDROOM1.12,Mixing/Well-Stirred
RoomAir Model,STAIRCASE1.1,Mixing/Well-Stirred
RoomAir Model,KITCHEN1.3,Mixing/Well-Stirred
RoomAir Model,KITCHEN1.4,Mixing/Well-Stirred
RoomAir Model,LIVINGROOM1.4,Mixing/Well-Stirred
RoomAir Model,BEDROOM1.6,Mixing/Well-Stirred
RoomAir Model,BEDROOM1.8,Mixing/Well-Stirred
RoomAir Model,BEDROOM1.3,Mixing/Well-Stirred
RoomAir Model,BEDROOM1.2,Mixing/Well-Stirred
RoomAir Model,BEDROOM1.1,Mixing/Well-Stirred
RoomAir Model,LIVINGROOM1.1,Mixing/Well-Stirred
RoomAir Model,BEDROOM1.5,Mixing/Well-Stirred
RoomAir Model,LIVINGROOM2.4,Mixing/Well-Stirred
RoomAir Model,BEDROOM2.5,Mixing/Well-Stirred
RoomAir Model,LIVINGROOM2.1,Mixing/Well-Stirred
RoomAir Model,BEDROOM2.11,Mixing/Well-Stirred
RoomAir Model,BEDROOM2.10,Mixing/Well-Stirred
RoomAir Model,BEDROOM2.9,Mixing/Well-Stirred
RoomAir Model,LIVINGROOM2.3,Mixing/Well-Stirred
RoomAir Model,BEDROOM2.7,Mixing/Well-Stirred
RoomAir Model,LIVINGROOM2.2,Mixing/Well-Stirred
RoomAir Model,BEDROOM2.2,Mixing/Well-Stirred
RoomAir Model,BEDROOM2.8,Mixing/Well-Stirred
RoomAir Model,BEDROOM2.3,Mixing/Well-Stirred
RoomAir Model,BEDROOM2.1,Mixing/Well-Stirred
RoomAir Model,BEDROOM2.4,Mixing/Well-Stirred
RoomAir Model,BEDROOM2.6,Mixing/Well-Stirred
RoomAir Model,KITCHEN2.1,Mixing/Well-Stirred
RoomAir Model,KITCHEN2.4,Mixing/Well-Stirred
RoomAir Model,KITCHEN2.3,Mixing/Well-Stirred
RoomAir Model,STAIRCASE2.1,Mixing/Well-Stirred
RoomAir Model,BEDROOM2.12,Mixing/Well-Stirred
RoomAir Model,KITCHEN2.2,Mixing/Well-Stirred
RoomAir Model,LIVINGROOM3.4,Mixing/Well-Stirred
RoomAir Model,BEDROOM3.5,Mixing/Well-Stirred
RoomAir Model,LIVINGROOM3.1,Mixing/Well-Stirred
RoomAir Model,BEDROOM3.11,Mixing/Well-Stirred
RoomAir Model,BEDROOM3.10,Mixing/Well-Stirred
RoomAir Model,BEDROOM3.9,Mixing/Well-Stirred
RoomAir Model,LIVINGROOM3.3,Mixing/Well-Stirred
RoomAir Model,KITCHEN3.4,Mixing/Well-Stirred
RoomAir Model,KITCHEN3.1,Mixing/Well-Stirred
RoomAir Model,BEDROOM3.4,Mixing/Well-Stirred
RoomAir Model,BEDROOM3.6,Mixing/Well-Stirred
RoomAir Model,KITCHEN3.3,Mixing/Well-Stirred
RoomAir Model,KITCHEN3.2,Mixing/Well-Stirred
RoomAir Model,BEDROOM3.12,Mixing/Well-Stirred
RoomAir Model,STAIRCASE3.1,Mixing/Well-Stirred
RoomAir Model,BEDROOM3.3,Mixing/Well-Stirred
RoomAir Model,BEDROOM3.1,Mixing/Well-Stirred
RoomAir Model,BEDROOM3.8,Mixing/Well-Stirred
RoomAir Model,BEDROOM3.2,Mixing/Well-Stirred
RoomAir Model,LIVINGROOM3.2,Mixing/Well-Stirred
RoomAir Model,BEDROOM3.7,Mixing/Well-Stirred
! <AirflowNetwork Model:Control>, No Multizone or Distribution/Multizone with Distribution/Multizone without Distribution/Multizone with Distribution only during Fan Operation
AirflowNetwork Model:Control,NoMultizoneOrDistribution
! <Zone Volume Capacitance Multiplier>, Sensible Heat Capacity Multiplier, Moisture Capacity Multiplier, Carbon Dioxide Capacity Multiplier, Generic Contaminant Capacity Multiplier
Zone Volume Capacitance Multiplier,   1.000 ,   1.000,   1.000,   1.000
! <Environment>,Environment Name,Environment Type, Start Date, End Date, Start DayOfWeek, Duration {#days}, Source:Start DayOfWeek,  Use Daylight Saving, Use Holidays, Apply Weekend Holiday Rule,  Use Rain Values, Use Snow Values
! <Environment:Special Days>, Special Day Name, Special Day Type, Source, Start Date, Duration {#days}
! <Environment:Daylight Saving>, Daylight Saving Indicator, Source, Start Date, End Date
! <Environment:WarmupDays>, NumberofWarmupDays
Environment,RUNPERIOD,WeatherFileRunPeriod,01/01/2015,12/31/2016,Thursday,365,Use RunPeriod Specified Day,Yes,Yes,No,Yes,Yes
Environment:Daylight Saving,Yes,InputFile,03/08,11/01
Environment:WarmupDays, 12
! <Warmup Convergence Information>,Zone Name,Environment Type/Name,Average Warmup Temperature Difference {deltaC},Std Dev Warmup Temperature Difference {deltaC},Max Temperature Pass/Fail Convergence,Min Temperature Pass/Fail Convergence,Average Warmup Load Difference {W},Std Dev Warmup Load Difference {W},Heating Load Pass/Fail Convergence,Cooling Load Pass/Fail Convergence
 Warmup Convergence Information,KITCHEN1.1,RunPeriod: RUNPERIOD,7.3530018162E-002,6.5348535766E-002,Pass,Pass,0.0000000000,0.0000000000,Pass,Pass
 Warmup Convergence Information,BEDROOM1.4,RunPeriod: RUNPERIOD,0.1875807676,0.8579960872,Pass,Pass,2.0443808607E-002,0.1111135202,Pass,Pass
 Warmup Convergence Information,KITCHEN1.2,RunPeriod: RUNPERIOD,7.3558125851E-002,6.5301662384E-002,Pass,Pass,0.0000000000,0.0000000000,Pass,Pass
 Warmup Convergence Information,LIVINGROOM1.2,RunPeriod: RUNPERIOD,0.1977424717,0.8606001851,Pass,Pass,2.2701000178E-002,9.0083507155E-002,Pass,Pass
 Warmup Convergence Information,BEDROOM1.7,RunPeriod: RUNPERIOD,0.1864092263,0.8346658909,Pass,Pass,2.6965109178E-002,0.1411466528,Pass,Pass
 Warmup Convergence Information,LIVINGROOM1.3,RunPeriod: RUNPERIOD,0.1968914372,0.8496242949,Pass,Pass,2.2736051354E-002,8.9866791665E-002,Pass,Pass
 Warmup Convergence Information,BEDROOM1.9,RunPeriod: RUNPERIOD,0.1864863317,0.8491327190,Pass,Pass,2.1082053453E-002,0.1150960334,Pass,Pass
 Warmup Convergence Information,BEDROOM1.10,RunPeriod: RUNPERIOD,0.1827658775,0.8406446723,Pass,Pass,2.0010644638E-002,0.1099446920,Pass,Pass
 Warmup Convergence Information,BEDROOM1.11,RunPeriod: RUNPERIOD,0.1830850596,0.8424231918,Pass,Pass,1.9943353433E-002,0.1093083594,Pass,Pass
 Warmup Convergence Information,BEDROOM1.12,RunPeriod: RUNPERIOD,0.1871186490,0.8572430061,Pass,Pass,2.0404145608E-002,0.1107126547,Pass,Pass
 Warmup Convergence Information,STAIRCASE1.1,RunPeriod: RUNPERIOD,2.0167838744E-003,1.0790108344E-003,Pass,Pass,0.0000000000,0.0000000000,Pass,Pass
 Warmup Convergence Information,KITCHEN1.3,RunPeriod: RUNPERIOD,7.3531402051E-002,6.5348832035E-002,Pass,Pass,0.0000000000,0.0000000000,Pass,Pass
 Warmup Convergence Information,KITCHEN1.4,RunPeriod: RUNPERIOD,7.3559541095E-002,6.5301913939E-002,Pass,Pass,0.0000000000,0.0000000000,Pass,Pass
 Warmup Convergence Information,LIVINGROOM1.4,RunPeriod: RUNPERIOD,0.1977537786,0.8606573907,Pass,Pass,2.2699382061E-002,9.0081460041E-002,Pass,Pass
 Warmup Convergence Information,BEDROOM1.6,RunPeriod: RUNPERIOD,0.1869963166,0.8422404995,Pass,Pass,2.5907289568E-002,0.1360240285,Pass,Pass
 Warmup Convergence Information,BEDROOM1.8,RunPeriod: RUNPERIOD,0.1869967175,0.8422434859,Pass,Pass,2.5906878769E-002,0.1360218966,Pass,Pass
 Warmup Convergence Information,BEDROOM1.3,RunPeriod: RUNPERIOD,0.1835921587,0.8432010764,Pass,Pass,1.9994052504E-002,0.1098525079,Pass,Pass
 Warmup Convergence Information,BEDROOM1.2,RunPeriod: RUNPERIOD,0.1832768049,0.8414423247,Pass,Pass,2.0060831910E-002,0.1104835093,Pass,Pass
 Warmup Convergence Information,BEDROOM1.1,RunPeriod: RUNPERIOD,0.1869756229,0.8500516803,Pass,Pass,2.1149293107E-002,0.1154263356,Pass,Pass
 Warmup Convergence Information,LIVINGROOM1.1,RunPeriod: RUNPERIOD,0.1968828420,0.8495812848,Pass,Pass,2.2737602095E-002,8.9869299061E-002,Pass,Pass
 Warmup Convergence Information,BEDROOM1.5,RunPeriod: RUNPERIOD,0.1864090646,0.8346642349,Pass,Pass,2.6965368852E-002,0.1411481003,Pass,Pass
 Warmup Convergence Information,LIVINGROOM2.4,RunPeriod: RUNPERIOD,0.2036640167,0.8893869147,Pass,Pass,2.2354986148E-002,8.9907092559E-002,Pass,Pass
 Warmup Convergence Information,BEDROOM2.5,RunPeriod: RUNPERIOD,0.1907215570,0.8564270242,Pass,Pass,2.5474689391E-002,0.1336048399,Pass,Pass
 Warmup Convergence Information,LIVINGROOM2.1,RunPeriod: RUNPERIOD,0.2025794252,0.8774270814,Pass,Pass,2.2376607554E-002,8.9442142345E-002,Pass,Pass
 Warmup Convergence Information,BEDROOM2.11,RunPeriod: RUNPERIOD,0.1872314530,0.8630017304,Pass,Pass,1.9543493832E-002,0.1046048163,Pass,Pass
 Warmup Convergence Information,BEDROOM2.10,RunPeriod: RUNPERIOD,0.1868891688,0.8611157578,Pass,Pass,1.9607540587E-002,0.1052234029,Pass,Pass
 Warmup Convergence Information,BEDROOM2.9,RunPeriod: RUNPERIOD,0.1903217580,0.8682323919,Pass,Pass,2.0451351593E-002,0.1107541748,Pass,Pass
 Warmup Convergence Information,LIVINGROOM2.3,RunPeriod: RUNPERIOD,0.2025910383,0.8774867614,Pass,Pass,2.2375078801E-002,8.9440483365E-002,Pass,Pass
 Warmup Convergence Information,BEDROOM2.7,RunPeriod: RUNPERIOD,0.1907219168,0.8564298049,Pass,Pass,2.5474307820E-002,0.1336028500,Pass,Pass
 Warmup Convergence Information,LIVINGROOM2.2,RunPeriod: RUNPERIOD,0.2036493912,0.8893115325,Pass,Pass,2.2356555542E-002,8.9907767210E-002,Pass,Pass
 Warmup Convergence Information,BEDROOM2.2,RunPeriod: RUNPERIOD,0.1873426847,0.8617037922,Pass,Pass,1.9658687936E-002,0.1057796635,Pass,Pass
 Warmup Convergence Information,BEDROOM2.8,RunPeriod: RUNPERIOD,0.1914490594,0.8646330961,Pass,Pass,2.4431716528E-002,0.1286444136,Pass,Pass
 Warmup Convergence Information,BEDROOM2.3,RunPeriod: RUNPERIOD,0.1876812265,0.8635695988,Pass,Pass,1.9595870412E-002,0.1051665009,Pass,Pass
 Warmup Convergence Information,BEDROOM2.1,RunPeriod: RUNPERIOD,0.1907877715,0.8689985660,Pass,Pass,2.0491657553E-002,0.1111482032,Pass,Pass
 Warmup Convergence Information,BEDROOM2.4,RunPeriod: RUNPERIOD,0.1915408900,0.8775498759,Pass,Pass,2.0078328303E-002,0.1068348780,Pass,Pass
 Warmup Convergence Information,BEDROOM2.6,RunPeriod: RUNPERIOD,0.1914484299,0.8646288880,Pass,Pass,2.4432245699E-002,0.1286470574,Pass,Pass
 Warmup Convergence Information,KITCHEN2.1,RunPeriod: RUNPERIOD,7.5557070948E-002,6.5066074339E-002,Pass,Pass,0.0000000000,0.0000000000,Pass,Pass
 Warmup Convergence Information,KITCHEN2.4,RunPeriod: RUNPERIOD,7.5585140694E-002,6.5080543446E-002,Pass,Pass,0.0000000000,0.0000000000,Pass,Pass
 Warmup Convergence Information,KITCHEN2.3,RunPeriod: RUNPERIOD,7.5558658551E-002,6.5062276706E-002,Pass,Pass,0.0000000000,0.0000000000,Pass,Pass
 Warmup Convergence Information,STAIRCASE2.1,RunPeriod: RUNPERIOD,2.3369248148E-003,1.2856781738E-003,Pass,Pass,0.0000000000,0.0000000000,Pass,Pass
 Warmup Convergence Information,BEDROOM2.12,RunPeriod: RUNPERIOD,0.1911062297,0.8769600022,Pass,Pass,2.0031779231E-002,0.1063811131,Pass,Pass
 Warmup Convergence Information,KITCHEN2.2,RunPeriod: RUNPERIOD,7.5583521418E-002,6.5084302859E-002,Pass,Pass,0.0000000000,0.0000000000,Pass,Pass
 Warmup Convergence Information,LIVINGROOM3.4,RunPeriod: RUNPERIOD,0.2093577342,0.9201979229,Pass,Pass,2.0492251160E-002,8.6099590364E-002,Pass,Pass
 Warmup Convergence Information,BEDROOM3.5,RunPeriod: RUNPERIOD,0.1964148812,0.8869719873,Pass,Pass,2.2621354586E-002,0.1211604493,Pass,Pass
 Warmup Convergence Information,LIVINGROOM3.1,RunPeriod: RUNPERIOD,0.2081171286,0.9083212526,Pass,Pass,2.1249904226E-002,8.7895339485E-002,Pass,Pass
 Warmup Convergence Information,BEDROOM3.11,RunPeriod: RUNPERIOD,0.1919105161,0.8890287168,Pass,Pass,1.8580181838E-002,9.6493471611E-002,Pass,Pass
 Warmup Convergence Information,BEDROOM3.10,RunPeriod: RUNPERIOD,0.1915825059,0.8872675820,Pass,Pass,1.8629695638E-002,9.6989531317E-002,Pass,Pass
 Warmup Convergence Information,BEDROOM3.9,RunPeriod: RUNPERIOD,0.1950757887,0.8937546989,Pass,Pass,1.9464039081E-002,0.1026399000,Pass,Pass
 Warmup Convergence Information,LIVINGROOM3.3,RunPeriod: RUNPERIOD,0.2081314788,0.9083973766,Pass,Pass,2.1248742060E-002,8.7896078201E-002,Pass,Pass
 Warmup Convergence Information,KITCHEN3.4,RunPeriod: RUNPERIOD,7.5486770048E-002,6.3611168673E-002,Pass,Pass,0.0000000000,0.0000000000,Pass,Pass
 Warmup Convergence Information,KITCHEN3.1,RunPeriod: RUNPERIOD,7.5462919452E-002,6.3559653043E-002,Pass,Pass,0.0000000000,0.0000000000,Pass,Pass
 Warmup Convergence Information,BEDROOM3.4,RunPeriod: RUNPERIOD,0.1962040951,0.9023704913,Pass,Pass,1.9130245527E-002,9.9136919207E-002,Pass,Pass
 Warmup Convergence Information,BEDROOM3.6,RunPeriod: RUNPERIOD,0.1972023855,0.8948859052,Pass,Pass,2.1671516629E-002,0.1169290043,Pass,Pass
