Program Version,EnergyPlus, Version 8.7.0-78a111df4a, YMD=2019.05.27 21:30
