Program Version,EnergyPlus, Version 8.7.0-78a111df4a, YMD=2019.05.27 21:30,IDD_Version 8.7.0
   ** Warning ** Version: in IDF="8.4" not the same as expected="8.7"
   ** Warning ** CheckEnvironmentSpecifications: SimulationControl specified doing design day simulations, but no design environments specified.
   **   ~~~   ** ...No design environment results produced. For these results, add appropriate SizingPeriod:* objects for your simulation.
   ** Warning ** Site:GroundTemperature:BuildingSurface: Some values fall outside the range of 15-25C.
   **   ~~~   ** These values may be inappropriate.  Please consult the Input Output Reference for more details.
   ** Severe  ** BuildingSurface:Detailed="SOUTHWALL1.4", invalid Construction Name="EXTERIOR WALL".
   ** Severe  ** BuildingSurface:Detailed="EASTWALL1.1", invalid Construction Name="EXTERIOR WALL".
   ** Severe  ** BuildingSurface:Detailed="EASTWALL1.2", invalid Construction Name="EXTERIOR WALL".
   ** Severe  ** BuildingSurface:Detailed="WESTWALL1.4", invalid Construction Name="EXTERIOR WALL".
   ** Severe  ** BuildingSurface:Detailed="WESTWALL1.5", invalid Construction Name="EXTERIOR WALL".
   ** Severe  ** BuildingSurface:Detailed="WESTWALL1.6", invalid Construction Name="EXTERIOR WALL".
   ** Severe  ** BuildingSurface:Detailed="NORTHWALL1.1", invalid Construction Name="EXTERIOR WALL".
   ** Severe  ** BuildingSurface:Detailed="NORTHWALL1.2", invalid Construction Name="EXTERIOR WALL".
   ** Severe  ** BuildingSurface:Detailed="NORTHWALL1.3", invalid Construction Name="EXTERIOR WALL".
   ** Severe  ** BuildingSurface:Detailed="EASTWALL1.6", invalid Construction Name="EXTERIOR WALL".
   ** Severe  ** BuildingSurface:Detailed="NORTHWALL1.4", invalid Construction Name="EXTERIOR WALL".
   ** Severe  ** BuildingSurface:Detailed="EASTWALL1.5", invalid Construction Name="EXTERIOR WALL".
   ** Severe  ** BuildingSurface:Detailed="EASTWALL1.3", invalid Construction Name="EXTERIOR WALL".
   ** Severe  ** BuildingSurface:Detailed="EASTWALL1.4", invalid Construction Name="EXTERIOR WALL".
   ** Severe  ** BuildingSurface:Detailed="SOUTHWALL1.3", invalid Construction Name="EXTERIOR WALL".
   ** Severe  ** BuildingSurface:Detailed="SOUTHWALL1.2", invalid Construction Name="EXTERIOR WALL".
   ** Severe  ** BuildingSurface:Detailed="WESTWALL1.1", invalid Construction Name="EXTERIOR WALL".
   ** Severe  ** BuildingSurface:Detailed="SOUTHWALL1.1", invalid Construction Name="EXTERIOR WALL".
   ** Severe  ** BuildingSurface:Detailed="WESTWALL1.2", invalid Construction Name="EXTERIOR WALL".
   ** Severe  ** BuildingSurface:Detailed="WESTWALL1.3", invalid Construction Name="EXTERIOR WALL".
   ** Severe  ** BuildingSurface:Detailed="EASTWALL2.5", invalid Construction Name="EXTERIOR WALL".
   ** Severe  ** BuildingSurface:Detailed="WESTWALL2.3", invalid Construction Name="EXTERIOR WALL".
   ** Severe  ** BuildingSurface:Detailed="WESTWALL2.2", invalid Construction Name="EXTERIOR WALL".
   ** Severe  ** BuildingSurface:Detailed="NORTHWALL2.3", invalid Construction Name="EXTERIOR WALL".
   ** Severe  ** BuildingSurface:Detailed="NORTHWALL2.2", invalid Construction Name="EXTERIOR WALL".
   ** Severe  ** BuildingSurface:Detailed="WESTWALL2.6", invalid Construction Name="EXTERIOR WALL".
   ** Severe  ** BuildingSurface:Detailed="NORTHWALL2.1", invalid Construction Name="EXTERIOR WALL".
   ** Severe  ** BuildingSurface:Detailed="WESTWALL2.5", invalid Construction Name="EXTERIOR WALL".
   ** Severe  ** BuildingSurface:Detailed="WESTWALL2.4", invalid Construction Name="EXTERIOR WALL".
   ** Severe  ** BuildingSurface:Detailed="EASTWALL2.2", invalid Construction Name="EXTERIOR WALL".
   ** Severe  ** BuildingSurface:Detailed="SOUTHWALL2.2", invalid Construction Name="EXTERIOR WALL".
   ** Severe  ** BuildingSurface:Detailed="EASTWALL2.4", invalid Construction Name="EXTERIOR WALL".
   ** Severe  ** BuildingSurface:Detailed="SOUTHWALL2.3", invalid Construction Name="EXTERIOR WALL".
   ** Severe  ** BuildingSurface:Detailed="WESTWALL2.1", invalid Construction Name="EXTERIOR WALL".
   ** Severe  ** BuildingSurface:Detailed="SOUTHWALL2.1", invalid Construction Name="EXTERIOR WALL".
   ** Severe  ** BuildingSurface:Detailed="EASTWALL2.1", invalid Construction Name="EXTERIOR WALL".
   ** Severe  ** BuildingSurface:Detailed="SOUTHWALL2.4", invalid Construction Name="EXTERIOR WALL".
   ** Severe  ** BuildingSurface:Detailed="EASTWALL2.3", invalid Construction Name="EXTERIOR WALL".
   ** Severe  ** BuildingSurface:Detailed="EASTWALL2.6", invalid Construction Name="EXTERIOR WALL".
   ** Severe  ** BuildingSurface:Detailed="NORTHWALL2.4", invalid Construction Name="EXTERIOR WALL".
   ** Severe  ** BuildingSurface:Detailed="EASTWALL3.5", invalid Construction Name="EXTERIOR WALL".
   ** Severe  ** BuildingSurface:Detailed="WESTWALL3.3", invalid Construction Name="EXTERIOR WALL".
   ** Severe  ** BuildingSurface:Detailed="WESTWALL3.2", invalid Construction Name="EXTERIOR WALL".
   ** Severe  ** BuildingSurface:Detailed="NORTHWALL3.3", invalid Construction Name="EXTERIOR WALL".
   ** Severe  ** BuildingSurface:Detailed="NORTHWALL3.2", invalid Construction Name="EXTERIOR WALL".
   ** Severe  ** BuildingSurface:Detailed="WESTWALL3.6", invalid Construction Name="EXTERIOR WALL".
   ** Severe  ** BuildingSurface:Detailed="NORTHWALL3.1", invalid Construction Name="EXTERIOR WALL".
   ** Severe  ** BuildingSurface:Detailed="WESTWALL3.5", invalid Construction Name="EXTERIOR WALL".
   ** Severe  ** BuildingSurface:Detailed="EASTWALL3.1", invalid Construction Name="EXTERIOR WALL".
   ** Severe  ** BuildingSurface:Detailed="SOUTHWALL3.4", invalid Construction Name="EXTERIOR WALL".
   ** Severe  ** BuildingSurface:Detailed="EASTWALL3.3", invalid Construction Name="EXTERIOR WALL".
   ** Severe  ** BuildingSurface:Detailed="EASTWALL3.6", invalid Construction Name="EXTERIOR WALL".
   ** Severe  ** BuildingSurface:Detailed="NORTHWALL3.4", invalid Construction Name="EXTERIOR WALL".
   ** Severe  ** BuildingSurface:Detailed="SOUTHWALL3.3", invalid Construction Name="EXTERIOR WALL".
   ** Severe  ** BuildingSurface:Detailed="WESTWALL3.1", invalid Construction Name="EXTERIOR WALL".
   ** Severe  ** BuildingSurface:Detailed="SOUTHWALL3.1", invalid Construction Name="EXTERIOR WALL".
   ** Severe  ** BuildingSurface:Detailed="EASTWALL3.4", invalid Construction Name="EXTERIOR WALL".
   ** Severe  ** BuildingSurface:Detailed="SOUTHWALL3.2", invalid Construction Name="EXTERIOR WALL".
   ** Severe  ** BuildingSurface:Detailed="EASTWALL3.2", invalid Construction Name="EXTERIOR WALL".
   ** Severe  ** BuildingSurface:Detailed="WESTWALL3.4", invalid Construction Name="EXTERIOR WALL".
   ** Severe  ** FenestrationSurface:Detailed="EASTWINDOW1.1", invalid Construction Name="EXTERIOR WINDOW".
   ** Severe  ** FenestrationSurface:Detailed="EASTWINDOW1.2", invalid Construction Name="EXTERIOR WINDOW".
   ** Severe  ** FenestrationSurface:Detailed="EASTWINDOW1.6", invalid Construction Name="EXTERIOR WINDOW".
   ** Severe  ** FenestrationSurface:Detailed="EASTWINDOW1.5", invalid Construction Name="EXTERIOR WINDOW".
   ** Severe  ** FenestrationSurface:Detailed="EASTWINDOW1.3", invalid Construction Name="EXTERIOR WINDOW".
   ** Severe  ** FenestrationSurface:Detailed="EASTWINDOW1.4", invalid Construction Name="EXTERIOR WINDOW".
   ** Severe  ** FenestrationSurface:Detailed="EASTWINDOW2.5", invalid Construction Name="EXTERIOR WINDOW".
   ** Severe  ** FenestrationSurface:Detailed="EASTWINDOW2.2", invalid Construction Name="EXTERIOR WINDOW".
   ** Severe  ** FenestrationSurface:Detailed="EASTWINDOW2.4", invalid Construction Name="EXTERIOR WINDOW".
   ** Severe  ** FenestrationSurface:Detailed="EASTWINDOW2.1", invalid Construction Name="EXTERIOR WINDOW".
   ** Severe  ** FenestrationSurface:Detailed="EASTWINDOW2.3", invalid Construction Name="EXTERIOR WINDOW".
   ** Severe  ** FenestrationSurface:Detailed="EASTWINDOW2.6", invalid Construction Name="EXTERIOR WINDOW".
   ** Severe  ** FenestrationSurface:Detailed="EASTWINDOW3.5", invalid Construction Name="EXTERIOR WINDOW".
   ** Severe  ** FenestrationSurface:Detailed="EASTWINDOW3.1", invalid Construction Name="EXTERIOR WINDOW".
   ** Severe  ** FenestrationSurface:Detailed="EASTWINDOW3.3", invalid Construction Name="EXTERIOR WINDOW".
   ** Severe  ** FenestrationSurface:Detailed="EASTWINDOW3.6", invalid Construction Name="EXTERIOR WINDOW".
   ** Severe  ** FenestrationSurface:Detailed="EASTWINDOW3.4", invalid Construction Name="EXTERIOR WINDOW".
   ** Severe  ** FenestrationSurface:Detailed="EASTWINDOW3.2", invalid Construction Name="EXTERIOR WINDOW".
   ** Severe  ** FenestrationSurface:Detailed="WESTWINDOW1.4", invalid Construction Name="EXTERIOR WINDOW".
   ** Severe  ** FenestrationSurface:Detailed="WESTWINDOW1.5", invalid Construction Name="EXTERIOR WINDOW".
   ** Severe  ** FenestrationSurface:Detailed="WESTWINDOW1.6", invalid Construction Name="EXTERIOR WINDOW".
   ** Severe  ** FenestrationSurface:Detailed="WESTWINDOW1.1", invalid Construction Name="EXTERIOR WINDOW".
   ** Severe  ** FenestrationSurface:Detailed="WESTWINDOW1.2", invalid Construction Name="EXTERIOR WINDOW".
   ** Severe  ** FenestrationSurface:Detailed="WESTWINDOW1.3", invalid Construction Name="EXTERIOR WINDOW".
   ** Severe  ** FenestrationSurface:Detailed="WESTWINDOW2.3", invalid Construction Name="EXTERIOR WINDOW".
   ** Severe  ** FenestrationSurface:Detailed="WESTWINDOW2.2", invalid Construction Name="EXTERIOR WINDOW".
   ** Severe  ** FenestrationSurface:Detailed="WESTWINDOW2.6", invalid Construction Name="EXTERIOR WINDOW".
   ** Severe  ** FenestrationSurface:Detailed="WESTWINDOW2.5", invalid Construction Name="EXTERIOR WINDOW".
   ** Severe  ** FenestrationSurface:Detailed="WESTWINDOW2.4", invalid Construction Name="EXTERIOR WINDOW".
   ** Severe  ** FenestrationSurface:Detailed="WESTWINDOW2.1", invalid Construction Name="EXTERIOR WINDOW".
   ** Severe  ** FenestrationSurface:Detailed="WESTWINDOW3.3", invalid Construction Name="EXTERIOR WINDOW".
   ** Severe  ** FenestrationSurface:Detailed="WESTWINDOW3.2", invalid Construction Name="EXTERIOR WINDOW".
   ** Severe  ** FenestrationSurface:Detailed="WESTWINDOW3.6", invalid Construction Name="EXTERIOR WINDOW".
   ** Severe  ** FenestrationSurface:Detailed="WESTWINDOW3.5", invalid Construction Name="EXTERIOR WINDOW".
   ** Severe  ** FenestrationSurface:Detailed="WESTWINDOW3.1", invalid Construction Name="EXTERIOR WINDOW".
   ** Severe  ** FenestrationSurface:Detailed="WESTWINDOW3.4", invalid Construction Name="EXTERIOR WINDOW".
   ** Severe  ** FenestrationSurface:Detailed="SOUTHWINDOW1.4", invalid Construction Name="EXTERIOR WINDOW".
   ** Severe  ** FenestrationSurface:Detailed="SOUTHWINDOW1.3", invalid Construction Name="EXTERIOR WINDOW".
   ** Severe  ** FenestrationSurface:Detailed="SOUTHWINDOW1.2", invalid Construction Name="EXTERIOR WINDOW".
   ** Severe  ** FenestrationSurface:Detailed="SOUTHWINDOW1.1", invalid Construction Name="EXTERIOR WINDOW".
   ** Severe  ** FenestrationSurface:Detailed="SOUTHWINDOW2.2", invalid Construction Name="EXTERIOR WINDOW".
   ** Severe  ** FenestrationSurface:Detailed="SOUTHWINDOW2.3", invalid Construction Name="EXTERIOR WINDOW".
   ** Severe  ** FenestrationSurface:Detailed="SOUTHWINDOW2.1", invalid Construction Name="EXTERIOR WINDOW".
   ** Severe  ** FenestrationSurface:Detailed="SOUTHWINDOW2.4", invalid Construction Name="EXTERIOR WINDOW".
   ** Severe  ** FenestrationSurface:Detailed="SOUTHWINDOW3.4", invalid Construction Name="EXTERIOR WINDOW".
   ** Severe  ** FenestrationSurface:Detailed="SOUTHWINDOW3.3", invalid Construction Name="EXTERIOR WINDOW".
   ** Severe  ** FenestrationSurface:Detailed="SOUTHWINDOW3.1", invalid Construction Name="EXTERIOR WINDOW".
   ** Severe  ** FenestrationSurface:Detailed="SOUTHWINDOW3.2", invalid Construction Name="EXTERIOR WINDOW".
   ** Severe  ** FenestrationSurface:Detailed="NORTHWINDOW1.1", invalid Construction Name="EXTERIOR WINDOW".
   ** Severe  ** FenestrationSurface:Detailed="NORTHWINDOW1.2", invalid Construction Name="EXTERIOR WINDOW".
   ** Severe  ** FenestrationSurface:Detailed="NORTHWINDOW1.3", invalid Construction Name="EXTERIOR WINDOW".
   ** Severe  ** FenestrationSurface:Detailed="NORTHWINDOW1.4", invalid Construction Name="EXTERIOR WINDOW".
   ** Severe  ** FenestrationSurface:Detailed="NORTHWINDOW2.3", invalid Construction Name="EXTERIOR WINDOW".
   ** Severe  ** FenestrationSurface:Detailed="NORTHWINDOW2.2", invalid Construction Name="EXTERIOR WINDOW".
   ** Severe  ** FenestrationSurface:Detailed="NORTHWINDOW2.1", invalid Construction Name="EXTERIOR WINDOW".
   ** Severe  ** FenestrationSurface:Detailed="NORTHWINDOW2.4", invalid Construction Name="EXTERIOR WINDOW".
   ** Severe  ** FenestrationSurface:Detailed="NORTHWINDOW3.3", invalid Construction Name="EXTERIOR WINDOW".
   ** Severe  ** FenestrationSurface:Detailed="NORTHWINDOW3.2", invalid Construction Name="EXTERIOR WINDOW".
   ** Severe  ** FenestrationSurface:Detailed="NORTHWINDOW3.1", invalid Construction Name="EXTERIOR WINDOW".
   ** Severe  ** FenestrationSurface:Detailed="NORTHWINDOW3.4", invalid Construction Name="EXTERIOR WINDOW".
   **  Fatal  ** GetSurfaceData: Errors discovered, program terminates.
   ...Summary of Errors that led to program termination:
   ..... Reference severe error count=120
   ..... Last severe error=FenestrationSurface:Detailed="NORTHWINDOW3.4", invalid Construction Name="EXTERIOR WINDOW".
   ************* Warning:  Node connection errors not checked - most system input has not been read (see previous warning).
   ************* Fatal error -- final processing.  Program exited before simulations began.  See previous error messages.
   ************* EnergyPlus Warmup Error Summary. During Warmup: 0 Warning; 0 Severe Errors.
   ************* EnergyPlus Sizing Error Summary. During Sizing: 0 Warning; 0 Severe Errors.
   ************* EnergyPlus Terminated--Fatal Error Detected. 3 Warning; 120 Severe Errors; Elapsed Time=00hr 00min  0.26sec
