Program Version,EnergyPlus, Version 8.7.0-78a111df4a, YMD=2019.06.02 07:19,
   ** Warning ** Requested Object not found in Definitions: Output:PreprocessorMessage
   ** Severe  ** IP: IDD line~1 , or ; expected on this line
   ** Severe  ** IP: IDD line~394 , or ; expected on this line,position="t"
   ** Warning ** IP: IDD line~394 \ expected on this line
   **   ~~~   ** IP: Errors occured in ObjectDefinition for Class=A37, Object not available for IDF processing.
   ** Severe  ** IP: IDD line~4319 , or ; expected on this line,position="1758     \key VolumetricFlow"
   **   ~~~   ** IP: Errors occured in ObjectDefinition for Class=MATRIX:TWODIMENSION, Object not available for IDF processing.
   ** Severe  ** IP: IDD line~9494 , or ; expected on this line,position="ceGainsMonthly"
   ** Warning ** IP: IDD line~9494 \ expected on this line
   **   ~~~   ** IP: Errors occured in ObjectDefinition for Class=LIFECYCLECOST:USEADJUSTMENT, Object not available for IDF processing.
   ** Severe  ** IP: Already an Object called PHOTOVOLTAICPERFORMANCE:SANDIA. This definition ignored.
   **   ~~~   ** IP: Errors occured in ObjectDefinition for Class=PHOTOVOLTAICPERFORMANCE:SANDIA, Object not available for IDF processing.
   ** Severe  ** IP: Already an Object called GENERATOR:FUELCELL. This definition ignored.
   **   ~~~   ** IP: Errors occured in ObjectDefinition for Class=GENERATOR:FUELCELL, Object not available for IDF processing.
   ** Severe  ** IP: Already an Object called ELECTRICLOADCENTER:INVERTER:SIMPLE. This definition ignored.
   **   ~~~   ** IP: Errors occured in ObjectDefinition for Class=ELECTRICLOADCENTER:INVERTER:SIMPLE, Object not available for IDF processing.
   ** Severe  ** IP: Already an Object called ELECTRICLOADCENTER:INVERTER:FUNCTIONOFPOWER. This definition ignored.
   **   ~~~   ** IP: Errors occured in ObjectDefinition for Class=ELECTRICLOADCENTER:INVERTER:FUNCTIONOFPOWER, Object not available for IDF processing.
   ** Severe  ** IP: Already an Object called ELECTRICLOADCENTER:INVERTER:LOOKUPTABLE. This definition ignored.
   **   ~~~   ** IP: Errors occured in ObjectDefinition for Class=ELECTRICLOADCENTER:INVERTER:LOOKUPTABLE, Object not available for IDF processing.
   ** Severe  ** IP: Already an Object called ELECTRICLOADCENTER:STORAGE:SIMPLE. This definition ignored.
   **   ~~~   ** IP: Errors occured in ObjectDefinition for Class=ELECTRICLOADCENTER:STORAGE:SIMPLE, Object not available for IDF processing.
   ** Severe  ** IP: Already an Object called ELECTRICLOADCENTER:STORAGE:BATTERY. This definition ignored.
   **   ~~~   ** IP: Errors occured in ObjectDefinition for Class=ELECTRICLOADCENTER:STORAGE:BATTERY, Object not available for IDF processing.
   ** Severe  ** IP: Already an Object called ELECTRICLOADCENTER:TRANSFORMER. This definition ignored.
   **   ~~~   ** IP: Errors occured in ObjectDefinition for Class=ELECTRICLOADCENTER:TRANSFORMER, Object not available for IDF processing.
   ** Severe  ** IP: Already an Object called ELECTRICLOADCENTER:DISTRIBUTION. This definition ignored.
   **   ~~~   ** IP: Errors occured in ObjectDefinition for Class=ELECTRICLOADCENTER:DISTRIBUTION, Object not available for IDF processing.
   ** Severe  ** IP: Already an Object called ELECTRICLOADCENTER:STORAGE:CONVERTER. This definition ignored.
   **   ~~~   ** IP: Errors occured in ObjectDefinition for Class=ELECTRICLOADCENTER:STORAGE:CONVERTER, Object not available for IDF processing.
   ** Severe  ** IP: Already an Object called WATERUSE:EQUIPMENT. This definition ignored.
   **   ~~~   ** IP: Errors occured in ObjectDefinition for Class=WATERUSE:EQUIPMENT, Object not available for IDF processing.
   ** Severe  ** IP: Already an Object called WATERUSE:CONNECTIONS. This definition ignored.
   **   ~~~   ** IP: Errors occured in ObjectDefinition for Class=WATERUSE:CONNECTIONS, Object not available for IDF processing.
   ** Severe  ** IP: Already an Object called WATERUSE:STORAGE. This definition ignored.
   **   ~~~   ** IP: Errors occured in ObjectDefinition for Class=WATERUSE:STORAGE, Object not available for IDF processing.
   ** Severe  ** IP: Already an Object called WATERUSE:WELL. This definition ignored.
   **   ~~~   ** IP: Errors occured in ObjectDefinition for Class=WATERUSE:WELL, Object not available for IDF processing.
   ** Severe  ** IP: Already an Object called WATERUSE:RAINCOLLECTOR. This definition ignored.
   **   ~~~   ** IP: Errors occured in ObjectDefinition for Class=WATERUSE:RAINCOLLECTOR, Object not available for IDF processing.
   ** Severe  ** IP: Already an Object called FAULTMODEL:TEMPERATURESENSOROFFSET:OUTDOORAIR. This definition ignored.
   **   ~~~   ** IP: Errors occured in ObjectDefinition for Class=FAULTMODEL:TEMPERATURESENSOROFFSET:OUTDOORAIR, Object not available for IDF processing.
   ** Severe  ** IP: Already an Object called FAULTMODEL:HUMIDITYSENSOROFFSET:OUTDOORAIR. This definition ignored.
   **   ~~~   ** IP: Errors occured in ObjectDefinition for Class=FAULTMODEL:HUMIDITYSENSOROFFSET:OUTDOORAIR, Object not available for IDF processing.
   ** Severe  ** IP: Already an Object called FAULTMODEL:ENTHALPYSENSOROFFSET:OUTDOORAIR. This definition ignored.
   **   ~~~   ** IP: Errors occured in ObjectDefinition for Class=FAULTMODEL:ENTHALPYSENSOROFFSET:OUTDOORAIR, Object not available for IDF processing.
   ** Severe  ** IP: Already an Object called FAULTMODEL:PRESSURESENSOROFFSET:OUTDOORAIR. This definition ignored.
   **   ~~~   ** IP: Errors occured in ObjectDefinition for Class=FAULTMODEL:PRESSURESENSOROFFSET:OUTDOORAIR, Object not available for IDF processing.
   ** Severe  ** IP: Already an Object called FAULTMODEL:TEMPERATURESENSOROFFSET:RETURNAIR. This definition ignored.
   **   ~~~   ** IP: Errors occured in ObjectDefinition for Class=FAULTMODEL:TEMPERATURESENSOROFFSET:RETURNAIR, Object not available for IDF processing.
   ** Severe  ** IP: Already an Object called FAULTMODEL:ENTHALPYSENSOROFFSET:RETURNAIR. This definition ignored.
   **   ~~~   ** IP: Errors occured in ObjectDefinition for Class=FAULTMODEL:ENTHALPYSENSOROFFSET:RETURNAIR, Object not available for IDF processing.
   ** Severe  ** IP: Already an Object called FAULTMODEL:TEMPERATURESENSOROFFSET:CHILLERSUPPLYWATER. This definition ignored.
   **   ~~~   ** IP: Errors occured in ObjectDefinition for Class=FAULTMODEL:TEMPERATURESENSOROFFSET:CHILLERSUPPLYWATER, Object not available for IDF processing.
   ** Severe  ** IP: Already an Object called FAULTMODEL:TEMPERATURESENSOROFFSET:COILSUPPLYAIR. This definition ignored.
   **   ~~~   ** IP: Errors occured in ObjectDefinition for Class=FAULTMODEL:TEMPERATURESENSOROFFSET:COILSUPPLYAIR, Object not available for IDF processing.
   ** Severe  ** IP: Already an Object called FAULTMODEL:TEMPERATURESENSOROFFSET:CONDENSERSUPPLYWATER. This definition ignored.
   **   ~~~   ** IP: Errors occured in ObjectDefinition for Class=FAULTMODEL:TEMPERATURESENSOROFFSET:CONDENSERSUPPLYWATER, Object not available for IDF processing.
   ** Severe  ** IP: Already an Object called FAULTMODEL:THERMOSTATOFFSET. This definition ignored.
   **   ~~~   ** IP: Errors occured in ObjectDefinition for Class=FAULTMODEL:THERMOSTATOFFSET, Object not available for IDF processing.
   ** Severe  ** IP: Already an Object called FAULTMODEL:HUMIDISTATOFFSET. This definition ignored.
   **   ~~~   ** IP: Errors occured in ObjectDefinition for Class=FAULTMODEL:HUMIDISTATOFFSET, Object not available for IDF processing.
   ** Severe  ** IP: Already an Object called FAULTMODEL:FOULING:AIRFILTER. This definition ignored.
   **   ~~~   ** IP: Errors occured in ObjectDefinition for Class=FAULTMODEL:FOULING:AIRFILTER, Object not available for IDF processing.
   ** Severe  ** IP: Already an Object called FAULTMODEL:FOULING:BOILER. This definition ignored.
   **   ~~~   ** IP: Errors occured in ObjectDefinition for Class=FAULTMODEL:FOULING:BOILER, Object not available for IDF processing.
   ** Severe  ** IP: Already an Object called FAULTMODEL:FOULING:EVAPORATIVECOOLER. This definition ignored.
   **   ~~~   ** IP: Errors occured in ObjectDefinition for Class=FAULTMODEL:FOULING:EVAPORATIVECOOLER, Object not available for IDF processing.
   ** Severe  ** IP: Already an Object called FAULTMODEL:FOULING:CHILLER. This definition ignored.
   **   ~~~   ** IP: Errors occured in ObjectDefinition for Class=FAULTMODEL:FOULING:CHILLER, Object not available for IDF processing.
   ** Severe  ** IP: Already an Object called FAULTMODEL:FOULING:COOLINGTOWER. This definition ignored.
   **   ~~~   ** IP: Errors occured in ObjectDefinition for Class=FAULTMODEL:FOULING:COOLINGTOWER, Object not available for IDF processing.
   ** Severe  ** IP: Already an Object called FAULTMODEL:FOULING:COIL. This definition ignored.
   **   ~~~   ** IP: Errors occured in ObjectDefinition for Class=FAULTMODEL:FOULING:COIL, Object not available for IDF processing.
   ** Severe  ** IP: IDD line~17015 , or ; expected on this line,position="1758     \key VolumetricFlow"
   **   ~~~   ** IP: Errors occured in ObjectDefinition for Class=MATRIX:TWODIMENSION, Object not available for IDF processing.
   ** Severe  ** IP: Already an Object called CURVE:FUNCTIONAL:PRESSUREDROP. This definition ignored.
   **   ~~~   ** IP: Errors occured in ObjectDefinition for Class=CURVE:FUNCTIONAL:PRESSUREDROP, Object not available for IDF processing.
   ** Severe  ** IP: Already an Object called CURVE:FANPRESSURERISE. This definition ignored.
   **   ~~~   ** IP: Errors occured in ObjectDefinition for Class=CURVE:FANPRESSURERISE, Object not available for IDF processing.
   ** Severe  ** IP: Already an Object called CURVE:EXPONENTIALSKEWNORMAL. This definition ignored.
   **   ~~~   ** IP: Errors occured in ObjectDefinition for Class=CURVE:EXPONENTIALSKEWNORMAL, Object not available for IDF processing.
   ** Severe  ** IP: Already an Object called CURVE:SIGMOID. This definition ignored.
   **   ~~~   ** IP: Errors occured in ObjectDefinition for Class=CURVE:SIGMOID, Object not available for IDF processing.
   ** Severe  ** IP: Already an Object called CURVE:RECTANGULARHYPERBOLA1. This definition ignored.
   **   ~~~   ** IP: Errors occured in ObjectDefinition for Class=CURVE:RECTANGULARHYPERBOLA1, Object not available for IDF processing.
   ** Severe  ** IP: Already an Object called CURVE:RECTANGULARHYPERBOLA2. This definition ignored.
   **   ~~~   ** IP: Errors occured in ObjectDefinition for Class=CURVE:RECTANGULARHYPERBOLA2, Object not available for IDF processing.
   ** Severe  ** IP: Already an Object called CURVE:EXPONENTIALDECAY. This definition ignored.
   **   ~~~   ** IP: Errors occured in ObjectDefinition for Class=CURVE:EXPONENTIALDECAY, Object not available for IDF processing.
   ** Severe  ** IP: Already an Object called CURVE:DOUBLEEXPONENTIALDECAY. This definition ignored.
   **   ~~~   ** IP: Errors occured in ObjectDefinition for Class=CURVE:DOUBLEEXPONENTIALDECAY, Object not available for IDF processing.
   ** Severe  ** IP: Already an Object called CURVE:CHILLERPARTLOADWITHLIFT. This definition ignored.
   **   ~~~   ** IP: Errors occured in ObjectDefinition for Class=CURVE:CHILLERPARTLOADWITHLIFT, Object not available for IDF processing.
   ** Severe  ** IP: Already an Object called TABLE:ONEINDEPENDENTVARIABLE. This definition ignored.
   **   ~~~   ** IP: Errors occured in ObjectDefinition for Class=TABLE:ONEINDEPENDENTVARIABLE, Object not available for IDF processing.
   ** Severe  ** IP: Already an Object called TABLE:TWOINDEPENDENTVARIABLES. This definition ignored.
   **   ~~~   ** IP: Errors occured in ObjectDefinition for Class=TABLE:TWOINDEPENDENTVARIABLES, Object not available for IDF processing.
   ** Severe  ** IP: Already an Object called TABLE:MULTIVARIABLELOOKUP. This definition ignored.
   **   ~~~   ** IP: Errors occured in ObjectDefinition for Class=TABLE:MULTIVARIABLELOOKUP, Object not available for IDF processing.
   ** Severe  ** IP: Already an Object called FLUIDPROPERTIES:NAME. This definition ignored.
   **   ~~~   ** IP: Errors occured in ObjectDefinition for Class=FLUIDPROPERTIES:NAME, Object not available for IDF processing.
   ** Severe  ** IP: Already an Object called FLUIDPROPERTIES:GLYCOLCONCENTRATION. This definition ignored.
   **   ~~~   ** IP: Errors occured in ObjectDefinition for Class=FLUIDPROPERTIES:GLYCOLCONCENTRATION, Object not available for IDF processing.
   ** Severe  ** IP: Already an Object called FLUIDPROPERTIES:TEMPERATURES. This definition ignored.
   **   ~~~   ** IP: Errors occured in ObjectDefinition for Class=FLUIDPROPERTIES:TEMPERATURES, Object not available for IDF processing.
   ** Severe  ** IP: Already an Object called CURRENCYTYPE. This definition ignored.
   **   ~~~   ** IP: Errors occured in ObjectDefinition for Class=CURRENCYTYPE, Object not available for IDF processing.
   ** Severe  ** IP: Already an Object called COMPONENTCOST:ADJUSTMENTS. This definition ignored.
   **   ~~~   ** IP: Errors occured in ObjectDefinition for Class=COMPONENTCOST:ADJUSTMENTS, Object not available for IDF processing.
   ** Severe  ** IP: Already an Object called COMPONENTCOST:REFERENCE. This definition ignored.
   **   ~~~   ** IP: Errors occured in ObjectDefinition for Class=COMPONENTCOST:REFERENCE, Object not available for IDF processing.
   ** Severe  ** IP: Already an Object called COMPONENTCOST:LINEITEM. This definition ignored.
   **   ~~~   ** IP: Errors occured in ObjectDefinition for Class=COMPONENTCOST:LINEITEM, Object not available for IDF processing.
   ** Severe  ** IP: Already an Object called UTILITYCOST:TARIFF. This definition ignored.
   **   ~~~   ** IP: Errors occured in ObjectDefinition for Class=UTILITYCOST:TARIFF, Object not available for IDF processing.
   ** Severe  ** IP: Already an Object called UTILITYCOST:QUALIFY. This definition ignored.
   **   ~~~   ** IP: Errors occured in ObjectDefinition for Class=UTILITYCOST:QUALIFY, Object not available for IDF processing.
   ** Severe  ** IP: Already an Object called UTILITYCOST:CHARGE:SIMPLE. This definition ignored.
   **   ~~~   ** IP: Errors occured in ObjectDefinition for Class=UTILITYCOST:CHARGE:SIMPLE, Object not available for IDF processing.
   ** Severe  ** IP: Already an Object called UTILITYCOST:CHARGE:BLOCK. This definition ignored.
   **   ~~~   ** IP: Errors occured in ObjectDefinition for Class=UTILITYCOST:CHARGE:BLOCK, Object not available for IDF processing.
   ** Severe  ** IP: Already an Object called UTILITYCOST:RATCHET. This definition ignored.
   **   ~~~   ** IP: Errors occured in ObjectDefinition for Class=UTILITYCOST:RATCHET, Object not available for IDF processing.
   ** Severe  ** IP: Already an Object called UTILITYCOST:VARIABLE. This definition ignored.
   **   ~~~   ** IP: Errors occured in ObjectDefinition for Class=UTILITYCOST:VARIABLE, Object not available for IDF processing.
   ** Severe  ** IP: Already an Object called UTILITYCOST:COMPUTATION. This definition ignored.
   **   ~~~   ** IP: Errors occured in ObjectDefinition for Class=UTILITYCOST:COMPUTATION, Object not available for IDF processing.
   ** Severe  ** IP: Already an Object called LIFECYCLECOST:PARAMETERS. This definition ignored.
   **   ~~~   ** IP: Errors occured in ObjectDefinition for Class=LIFECYCLECOST:PARAMETERS, Object not available for IDF processing.
   ** Severe  ** IP: Already an Object called LIFECYCLECOST:RECURRINGCOSTS. This definition ignored.
   **   ~~~   ** IP: Errors occured in ObjectDefinition for Class=LIFECYCLECOST:RECURRINGCOSTS, Object not available for IDF processing.
   ** Severe  ** IP: Already an Object called LIFECYCLECOST:NONRECURRINGCOST. This definition ignored.
   **   ~~~   ** IP: Errors occured in ObjectDefinition for Class=LIFECYCLECOST:NONRECURRINGCOST, Object not available for IDF processing.
   ** Severe  ** IP: Already an Object called LIFECYCLECOST:USEPRICEESCALATION. This definition ignored.
   **   ~~~   ** IP: Errors occured in ObjectDefinition for Class=LIFECYCLECOST:USEPRICEESCALATION, Object not available for IDF processing.
   ** Severe  ** IP: IDD line~22190 , or ; expected on this line,position="ceGainsMonthly"
   ** Warning ** IP: IDD line~22190 \ expected on this line
   **   ~~~   ** IP: Errors occured in ObjectDefinition for Class=LIFECYCLECOST:USEADJUSTMENT, Object not available for IDF processing.
   ** Severe  ** IP: Already an Object called OUTPUT:TABLE:TIMEBINS. This definition ignored.
   **   ~~~   ** IP: Errors occured in ObjectDefinition for Class=OUTPUT:TABLE:TIMEBINS, Object not available for IDF processing.
   ** Severe  ** IP: Already an Object called OUTPUT:TABLE:MONTHLY. This definition ignored.
   **   ~~~   ** IP: Errors occured in ObjectDefinition for Class=OUTPUT:TABLE:MONTHLY, Object not available for IDF processing.
   ** Severe  ** IP: Already an Object called REFRIGERATION:AIRCHILLER. This definition ignored.
   **   ~~~   ** IP: Errors occured in ObjectDefinition for Class=REFRIGERATION:AIRCHILLER, Object not available for IDF processing.
   ** Severe  ** IP: Already an Object called ZONEHVAC:REFRIGERATIONCHILLERSET. This definition ignored.
   **   ~~~   ** IP: Errors occured in ObjectDefinition for Class=ZONEHVAC:REFRIGERATIONCHILLERSET, Object not available for IDF processing.
   ** Severe  ** IP: Already an Object called DEMANDMANAGERASSIGNMENTLIST. This definition ignored.
   **   ~~~   ** IP: Errors occured in ObjectDefinition for Class=DEMANDMANAGERASSIGNMENTLIST, Object not available for IDF processing.
   ** Severe  ** IP: Already an Object called DEMANDMANAGER:EXTERIORLIGHTS. This definition ignored.
   **   ~~~   ** IP: Errors occured in ObjectDefinition for Class=DEMANDMANAGER:EXTERIORLIGHTS, Object not available for IDF processing.
   ** Severe  ** IP: Already an Object called DEMANDMANAGER:LIGHTS. This definition ignored.
   **   ~~~   ** IP: Errors occured in ObjectDefinition for Class=DEMANDMANAGER:LIGHTS, Object not available for IDF processing.
   ** Severe  ** IP: Already an Object called DEMANDMANAGER:ELECTRICEQUIPMENT. This definition ignored.
   **   ~~~   ** IP: Errors occured in ObjectDefinition for Class=DEMANDMANAGER:ELECTRICEQUIPMENT, Object not available for IDF processing.
   ** Severe  ** IP: Already an Object called DEMANDMANAGER:THERMOSTATS. This definition ignored.
   **   ~~~   ** IP: Errors occured in ObjectDefinition for Class=DEMANDMANAGER:THERMOSTATS, Object not available for IDF processing.
   ** Severe  ** IP: Already an Object called DEMANDMANAGER:VENTILATION. This definition ignored.
   **   ~~~   ** IP: Errors occured in ObjectDefinition for Class=DEMANDMANAGER:VENTILATION, Object not available for IDF processing.
   ** Severe  ** IP: Already an Object called GENERATOR:INTERNALCOMBUSTIONENGINE. This definition ignored.
   **   ~~~   ** IP: Errors occured in ObjectDefinition for Class=GENERATOR:INTERNALCOMBUSTIONENGINE, Object not available for IDF processing.
   ** Severe  ** IP: Already an Object called GENERATOR:COMBUSTIONTURBINE. This definition ignored.
   **   ~~~   ** IP: Errors occured in ObjectDefinition for Class=GENERATOR:COMBUSTIONTURBINE, Object not available for IDF processing.
   ** Severe  ** IP: Already an Object called GENERATOR:MICROTURBINE. This definition ignored.
   **   ~~~   ** IP: Errors occured in ObjectDefinition for Class=GENERATOR:MICROTURBINE, Object not available for IDF processing.
   ** Severe  ** IP: Already an Object called GENERATOR:PHOTOVOLTAIC. This definition ignored.
   **   ~~~   ** IP: Errors occured in ObjectDefinition for Class=GENERATOR:PHOTOVOLTAIC, Object not available for IDF processing.
   ** Severe  ** IP: Already an Object called PHOTOVOLTAICPERFORMANCE:SIMPLE. This definition ignored.
   **   ~~~   ** IP: Errors occured in ObjectDefinition for Class=PHOTOVOLTAICPERFORMANCE:SIMPLE, Object not available for IDF processing.
   ** Severe  ** IP: Already an Object called PHOTOVOLTAICPERFORMANCE:EQUIVALENTONE-DIODE. This definition ignored.
   **   ~~~   ** IP: Errors occured in ObjectDefinition for Class=PHOTOVOLTAICPERFORMANCE:EQUIVALENTONE-DIODE, Object not available for IDF processing.
   ** Severe  ** IP: Already an Object called PHOTOVOLTAICPERFORMANCE:SANDIA. This definition ignored.
   **   ~~~   ** IP: Errors occured in ObjectDefinition for Class=PHOTOVOLTAICPERFORMANCE:SANDIA, Object not available for IDF processing.
   ** Severe  ** IP: Already an Object called GENERATOR:FUELCELL. This definition ignored.
   **   ~~~   ** IP: Errors occured in ObjectDefinition for Class=GENERATOR:FUELCELL, Object not available for IDF processing.
   ** Severe  ** IP: Already an Object called ELECTRICLOADCENTER:INVERTER:SIMPLE. This definition ignored.
   **   ~~~   ** IP: Errors occured in ObjectDefinition for Class=ELECTRICLOADCENTER:INVERTER:SIMPLE, Object not available for IDF processing.
   ** Severe  ** IP: Already an Object called ELECTRICLOADCENTER:INVERTER:FUNCTIONOFPOWER. This definition ignored.
   **   ~~~   ** IP: Errors occured in ObjectDefinition for Class=ELECTRICLOADCENTER:INVERTER:FUNCTIONOFPOWER, Object not available for IDF processing.
   ** Severe  ** IP: Already an Object called ELECTRICLOADCENTER:INVERTER:LOOKUPTABLE. This definition ignored.
   **   ~~~   ** IP: Errors occured in ObjectDefinition for Class=ELECTRICLOADCENTER:INVERTER:LOOKUPTABLE, Object not available for IDF processing.
   ** Severe  ** IP: Already an Object called ELECTRICLOADCENTER:STORAGE:SIMPLE. This definition ignored.
   **   ~~~   ** IP: Errors occured in ObjectDefinition for Class=ELECTRICLOADCENTER:STORAGE:SIMPLE, Object not available for IDF processing.
   ** Severe  ** IP: Already an Object called ELECTRICLOADCENTER:STORAGE:BATTERY. This definition ignored.
   **   ~~~   ** IP: Errors occured in ObjectDefinition for Class=ELECTRICLOADCENTER:STORAGE:BATTERY, Object not available for IDF processing.
   ** Severe  ** IP: Already an Object called ELECTRICLOADCENTER:TRANSFORMER. This definition ignored.
   **   ~~~   ** IP: Errors occured in ObjectDefinition for Class=ELECTRICLOADCENTER:TRANSFORMER, Object not available for IDF processing.
   ** Severe  ** IP: Already an Object called ELECTRICLOADCENTER:DISTRIBUTION. This definition ignored.
   **   ~~~   ** IP: Errors occured in ObjectDefinition for Class=ELECTRICLOADCENTER:DISTRIBUTION, Object not available for IDF processing.
   ** Severe  ** IP: Already an Object called ELECTRICLOADCENTER:STORAGE:CONVERTER. This definition ignored.
   **   ~~~   ** IP: Errors occured in ObjectDefinition for Class=ELECTRICLOADCENTER:STORAGE:CONVERTER, Object not available for IDF processing.
   ** Severe  ** IP: Already an Object called WATERUSE:EQUIPMENT. This definition ignored.
   **   ~~~   ** IP: Errors occured in ObjectDefinition for Class=WATERUSE:EQUIPMENT, Object not available for IDF processing.
   ** Severe  ** IP: Already an Object called WATERUSE:CONNECTIONS. This definition ignored.
   **   ~~~   ** IP: Errors occured in ObjectDefinition for Class=WATERUSE:CONNECTIONS, Object not available for IDF processing.
   ** Severe  ** IP: Already an Object called WATERUSE:STORAGE. This definition ignored.
   **   ~~~   ** IP: Errors occured in ObjectDefinition for Class=WATERUSE:STORAGE, Object not available for IDF processing.
   ** Severe  ** IP: Already an Object called WATERUSE:WELL. This definition ignored.
   **   ~~~   ** IP: Errors occured in ObjectDefinition for Class=WATERUSE:WELL, Object not available for IDF processing.
   ** Severe  ** IP: Already an Object called WATERUSE:RAINCOLLECTOR. This definition ignored.
   **   ~~~   ** IP: Errors occured in ObjectDefinition for Class=WATERUSE:RAINCOLLECTOR, Object not available for IDF processing.
   ** Severe  ** IP: Already an Object called FAULTMODEL:TEMPERATURESENSOROFFSET:OUTDOORAIR. This definition ignored.
   **   ~~~   ** IP: Errors occured in ObjectDefinition for Class=FAULTMODEL:TEMPERATURESENSOROFFSET:OUTDOORAIR, Object not available for IDF processing.
   ** Severe  ** IP: Already an Object called FAULTMODEL:HUMIDITYSENSOROFFSET:OUTDOORAIR. This definition ignored.
   **   ~~~   ** IP: Errors occured in ObjectDefinition for Class=FAULTMODEL:HUMIDITYSENSOROFFSET:OUTDOORAIR, Object not available for IDF processing.
   ** Severe  ** IP: Already an Object called FAULTMODEL:ENTHALPYSENSOROFFSET:OUTDOORAIR. This definition ignored.
   **   ~~~   ** IP: Errors occured in ObjectDefinition for Class=FAULTMODEL:ENTHALPYSENSOROFFSET:OUTDOORAIR, Object not available for IDF processing.
   ** Severe  ** IP: Already an Object called FAULTMODEL:PRESSURESENSOROFFSET:OUTDOORAIR. This definition ignored.
   **   ~~~   ** IP: Errors occured in ObjectDefinition for Class=FAULTMODEL:PRESSURESENSOROFFSET:OUTDOORAIR, Object not available for IDF processing.
   ** Severe  ** IP: Already an Object called FAULTMODEL:TEMPERATURESENSOROFFSET:RETURNAIR. This definition ignored.
   **   ~~~   ** IP: Errors occured in ObjectDefinition for Class=FAULTMODEL:TEMPERATURESENSOROFFSET:RETURNAIR, Object not available for IDF processing.
   ** Severe  ** IP: Already an Object called FAULTMODEL:ENTHALPYSENSOROFFSET:RETURNAIR. This definition ignored.
   **   ~~~   ** IP: Errors occured in ObjectDefinition for Class=FAULTMODEL:ENTHALPYSENSOROFFSET:RETURNAIR, Object not available for IDF processing.
   ** Severe  ** IP: Already an Object called FAULTMODEL:TEMPERATURESENSOROFFSET:CHILLERSUPPLYWATER. This definition ignored.
   **   ~~~   ** IP: Errors occured in ObjectDefinition for Class=FAULTMODEL:TEMPERATURESENSOROFFSET:CHILLERSUPPLYWATER, Object not available for IDF processing.
   ** Severe  ** IP: Already an Object called FAULTMODEL:TEMPERATURESENSOROFFSET:COILSUPPLYAIR. This definition ignored.
   **   ~~~   ** IP: Errors occured in ObjectDefinition for Class=FAULTMODEL:TEMPERATURESENSOROFFSET:COILSUPPLYAIR, Object not available for IDF processing.
   ** Severe  ** IP: Already an Object called FAULTMODEL:TEMPERATURESENSOROFFSET:CONDENSERSUPPLYWATER. This definition ignored.
   **   ~~~   ** IP: Errors occured in ObjectDefinition for Class=FAULTMODEL:TEMPERATURESENSOROFFSET:CONDENSERSUPPLYWATER, Object not available for IDF processing.
   ** Severe  ** IP: Already an Object called FAULTMODEL:THERMOSTATOFFSET. This definition ignored.
   **   ~~~   ** IP: Errors occured in ObjectDefinition for Class=FAULTMODEL:THERMOSTATOFFSET, Object not available for IDF processing.
   ** Severe  ** IP: Already an Object called FAULTMODEL:HUMIDISTATOFFSET. This definition ignored.
   **   ~~~   ** IP: Errors occured in ObjectDefinition for Class=FAULTMODEL:HUMIDISTATOFFSET, Object not available for IDF processing.
   ** Severe  ** IP: Already an Object called FAULTMODEL:FOULING:AIRFILTER. This definition ignored.
   **   ~~~   ** IP: Errors occured in ObjectDefinition for Class=FAULTMODEL:FOULING:AIRFILTER, Object not available for IDF processing.
   ** Severe  ** IP: Already an Object called FAULTMODEL:FOULING:BOILER. This definition ignored.
   **   ~~~   ** IP: Errors occured in ObjectDefinition for Class=FAULTMODEL:FOULING:BOILER, Object not available for IDF processing.
   ** Severe  ** IP: Already an Object called FAULTMODEL:FOULING:EVAPORATIVECOOLER. This definition ignored.
   **   ~~~   ** IP: Errors occured in ObjectDefinition for Class=FAULTMODEL:FOULING:EVAPORATIVECOOLER, Object not available for IDF processing.
   ** Severe  ** IP: Already an Object called FAULTMODEL:FOULING:CHILLER. This definition ignored.
   **   ~~~   ** IP: Errors occured in ObjectDefinition for Class=FAULTMODEL:FOULING:CHILLER, Object not available for IDF processing.
   ** Severe  ** IP: Already an Object called FAULTMODEL:FOULING:COOLINGTOWER. This definition ignored.
   **   ~~~   ** IP: Errors occured in ObjectDefinition for Class=FAULTMODEL:FOULING:COOLINGTOWER, Object not available for IDF processing.
   ** Severe  ** IP: Already an Object called FAULTMODEL:FOULING:COIL. This definition ignored.
   **   ~~~   ** IP: Errors occured in ObjectDefinition for Class=FAULTMODEL:FOULING:COIL, Object not available for IDF processing.
   ** Severe  ** IP: IDD line~29711 , or ; expected on this line,position="1758     \key VolumetricFlow"
   **   ~~~   ** IP: Errors occured in ObjectDefinition for Class=MATRIX:TWODIMENSION, Object not available for IDF processing.
   ** Severe  ** IP: Already an Object called CURVE:FUNCTIONAL:PRESSUREDROP. This definition ignored.
   **   ~~~   ** IP: Errors occured in ObjectDefinition for Class=CURVE:FUNCTIONAL:PRESSUREDROP, Object not available for IDF processing.
   ** Severe  ** IP: Already an Object called CURVE:FANPRESSURERISE. This definition ignored.
   **   ~~~   ** IP: Errors occured in ObjectDefinition for Class=CURVE:FANPRESSURERISE, Object not available for IDF processing.
   ** Severe  ** IP: Already an Object called CURVE:EXPONENTIALSKEWNORMAL. This definition ignored.
   **   ~~~   ** IP: Errors occured in ObjectDefinition for Class=CURVE:EXPONENTIALSKEWNORMAL, Object not available for IDF processing.
   ** Severe  ** IP: Already an Object called CURVE:SIGMOID. This definition ignored.
   **   ~~~   ** IP: Errors occured in ObjectDefinition for Class=CURVE:SIGMOID, Object not available for IDF processing.
   ** Severe  ** IP: Already an Object called CURVE:RECTANGULARHYPERBOLA1. This definition ignored.
   **   ~~~   ** IP: Errors occured in ObjectDefinition for Class=CURVE:RECTANGULARHYPERBOLA1, Object not available for IDF processing.
   ** Severe  ** IP: Already an Object called CURVE:RECTANGULARHYPERBOLA2. This definition ignored.
   **   ~~~   ** IP: Errors occured in ObjectDefinition for Class=CURVE:RECTANGULARHYPERBOLA2, Object not available for IDF processing.
   ** Severe  ** IP: Already an Object called CURVE:EXPONENTIALDECAY. This definition ignored.
   **   ~~~   ** IP: Errors occured in ObjectDefinition for Class=CURVE:EXPONENTIALDECAY, Object not available for IDF processing.
   ** Severe  ** IP: Already an Object called CURVE:DOUBLEEXPONENTIALDECAY. This definition ignored.
   **   ~~~   ** IP: Errors occured in ObjectDefinition for Class=CURVE:DOUBLEEXPONENTIALDECAY, Object not available for IDF processing.
   ** Severe  ** IP: Already an Object called CURVE:CHILLERPARTLOADWITHLIFT. This definition ignored.
   **   ~~~   ** IP: Errors occured in ObjectDefinition for Class=CURVE:CHILLERPARTLOADWITHLIFT, Object not available for IDF processing.
   ** Severe  ** IP: Already an Object called TABLE:ONEINDEPENDENTVARIABLE. This definition ignored.
   **   ~~~   ** IP: Errors occured in ObjectDefinition for Class=TABLE:ONEINDEPENDENTVARIABLE, Object not available for IDF processing.
   ** Severe  ** IP: Already an Object called TABLE:TWOINDEPENDENTVARIABLES. This definition ignored.
   **   ~~~   ** IP: Errors occured in ObjectDefinition for Class=TABLE:TWOINDEPENDENTVARIABLES, Object not available for IDF processing.
   ** Severe  ** IP: Already an Object called TABLE:MULTIVARIABLELOOKUP. This definition ignored.
   **   ~~~   ** IP: Errors occured in ObjectDefinition for Class=TABLE:MULTIVARIABLELOOKUP, Object not available for IDF processing.
   ** Severe  ** IP: Already an Object called FLUIDPROPERTIES:NAME. This definition ignored.
   **   ~~~   ** IP: Errors occured in ObjectDefinition for Class=FLUIDPROPERTIES:NAME, Object not available for IDF processing.
   ** Severe  ** IP: Already an Object called FLUIDPROPERTIES:GLYCOLCONCENTRATION. This definition ignored.
   **   ~~~   ** IP: Errors occured in ObjectDefinition for Class=FLUIDPROPERTIES:GLYCOLCONCENTRATION, Object not available for IDF processing.
   ** Severe  ** IP: Already an Object called FLUIDPROPERTIES:TEMPERATURES. This definition ignored.
   **   ~~~   ** IP: Errors occured in ObjectDefinition for Class=FLUIDPROPERTIES:TEMPERATURES, Object not available for IDF processing.
   ** Severe  ** IP: Already an Object called CURRENCYTYPE. This definition ignored.
   **   ~~~   ** IP: Errors occured in ObjectDefinition for Class=CURRENCYTYPE, Object not available for IDF processing.
   ** Severe  ** IP: Already an Object called COMPONENTCOST:ADJUSTMENTS. This definition ignored.
   **   ~~~   ** IP: Errors occured in ObjectDefinition for Class=COMPONENTCOST:ADJUSTMENTS, Object not available for IDF processing.
   ** Severe  ** IP: Already an Object called COMPONENTCOST:REFERENCE. This definition ignored.
   **   ~~~   ** IP: Errors occured in ObjectDefinition for Class=COMPONENTCOST:REFERENCE, Object not available for IDF processing.
   ** Severe  ** IP: Already an Object called COMPONENTCOST:LINEITEM. This definition ignored.
   **   ~~~   ** IP: Errors occured in ObjectDefinition for Class=COMPONENTCOST:LINEITEM, Object not available for IDF processing.
   ** Severe  ** IP: Already an Object called UTILITYCOST:TARIFF. This definition ignored.
   **   ~~~   ** IP: Errors occured in ObjectDefinition for Class=UTILITYCOST:TARIFF, Object not available for IDF processing.
   ** Severe  ** IP: Already an Object called UTILITYCOST:QUALIFY. This definition ignored.
   **   ~~~   ** IP: Errors occured in ObjectDefinition for Class=UTILITYCOST:QUALIFY, Object not available for IDF processing.
   ** Severe  ** IP: Already an Object called UTILITYCOST:CHARGE:SIMPLE. This definition ignored.
   **   ~~~   ** IP: Errors occured in ObjectDefinition for Class=UTILITYCOST:CHARGE:SIMPLE, Object not available for IDF processing.
   ** Severe  ** IP: Already an Object called UTILITYCOST:CHARGE:BLOCK. This definition ignored.
   **   ~~~   ** IP: Errors occured in ObjectDefinition for Class=UTILITYCOST:CHARGE:BLOCK, Object not available for IDF processing.
   ** Severe  ** IP: Already an Object called UTILITYCOST:RATCHET. This definition ignored.
   **   ~~~   ** IP: Errors occured in ObjectDefinition for Class=UTILITYCOST:RATCHET, Object not available for IDF processing.
   ** Severe  ** IP: Already an Object called UTILITYCOST:VARIABLE. This definition ignored.
   **   ~~~   ** IP: Errors occured in ObjectDefinition for Class=UTILITYCOST:VARIABLE, Object not available for IDF processing.
   ** Severe  ** IP: Already an Object called UTILITYCOST:COMPUTATION. This definition ignored.
   **   ~~~   ** IP: Errors occured in ObjectDefinition for Class=UTILITYCOST:COMPUTATION, Object not available for IDF processing.
   ** Severe  ** IP: Already an Object called LIFECYCLECOST:PARAMETERS. This definition ignored.
   **   ~~~   ** IP: Errors occured in ObjectDefinition for Class=LIFECYCLECOST:PARAMETERS, Object not available for IDF processing.
   ** Severe  ** IP: Already an Object called LIFECYCLECOST:RECURRINGCOSTS. This definition ignored.
   **   ~~~   ** IP: Errors occured in ObjectDefinition for Class=LIFECYCLECOST:RECURRINGCOSTS, Object not available for IDF processing.
   ** Severe  ** IP: Already an Object called LIFECYCLECOST:NONRECURRINGCOST. This definition ignored.
   **   ~~~   ** IP: Errors occured in ObjectDefinition for Class=LIFECYCLECOST:NONRECURRINGCOST, Object not available for IDF processing.
   ** Severe  ** IP: Already an Object called LIFECYCLECOST:USEPRICEESCALATION. This definition ignored.
   **   ~~~   ** IP: Errors occured in ObjectDefinition for Class=LIFECYCLECOST:USEPRICEESCALATION, Object not available for IDF processing.
   ** Severe  ** IP: IDD line~34886 , or ; expected on this line,position="ceGainsMonthly"
   ** Warning ** IP: IDD line~34886 \ expected on this line
   **   ~~~   ** IP: Errors occured in ObjectDefinition for Class=LIFECYCLECOST:USEADJUSTMENT, Object not available for IDF processing.
   ** Severe  ** IP: Already an Object called OUTPUT:TABLE:TIMEBINS. This definition ignored.
   **   ~~~   ** IP: Errors occured in ObjectDefinition for Class=OUTPUT:TABLE:TIMEBINS, Object not available for IDF processing.
   ** Severe  ** IP: Already an Object called OUTPUT:TABLE:MONTHLY. This definition ignored.
   **   ~~~   ** IP: Errors occured in ObjectDefinition for Class=OUTPUT:TABLE:MONTHLY, Object not available for IDF processing.
   ** Severe  ** IP: Already an Object called REFRIGERATION:AIRCHILLER. This definition ignored.
   **   ~~~   ** IP: Errors occured in ObjectDefinition for Class=REFRIGERATION:AIRCHILLER, Object not available for IDF processing.
   ** Severe  ** IP: Already an Object called ZONEHVAC:REFRIGERATIONCHILLERSET. This definition ignored.
   **   ~~~   ** IP: Errors occured in ObjectDefinition for Class=ZONEHVAC:REFRIGERATIONCHILLERSET, Object not available for IDF processing.
   ** Severe  ** IP: Already an Object called DEMANDMANAGERASSIGNMENTLIST. This definition ignored.
   **   ~~~   ** IP: Errors occured in ObjectDefinition for Class=DEMANDMANAGERASSIGNMENTLIST, Object not available for IDF processing.
   ** Severe  ** IP: Already an Object called DEMANDMANAGER:EXTERIORLIGHTS. This definition ignored.
   **   ~~~   ** IP: Errors occured in ObjectDefinition for Class=DEMANDMANAGER:EXTERIORLIGHTS, Object not available for IDF processing.
   ** Severe  ** IP: Already an Object called DEMANDMANAGER:LIGHTS. This definition ignored.
   **   ~~~   ** IP: Errors occured in ObjectDefinition for Class=DEMANDMANAGER:LIGHTS, Object not available for IDF processing.
   ** Severe  ** IP: Already an Object called DEMANDMANAGER:ELECTRICEQUIPMENT. This definition ignored.
   **   ~~~   ** IP: Errors occured in ObjectDefinition for Class=DEMANDMANAGER:ELECTRICEQUIPMENT, Object not available for IDF processing.
   ** Severe  ** IP: Already an Object called DEMANDMANAGER:THERMOSTATS. This definition ignored.
   **   ~~~   ** IP: Errors occured in ObjectDefinition for Class=DEMANDMANAGER:THERMOSTATS, Object not available for IDF processing.
   ** Severe  ** IP: Already an Object called DEMANDMANAGER:VENTILATION. This definition ignored.
   **   ~~~   ** IP: Errors occured in ObjectDefinition for Class=DEMANDMANAGER:VENTILATION, Object not available for IDF processing.
   ** Severe  ** IP: Already an Object called GENERATOR:INTERNALCOMBUSTIONENGINE. This definition ignored.
   **   ~~~   ** IP: Errors occured in ObjectDefinition for Class=GENERATOR:INTERNALCOMBUSTIONENGINE, Object not available for IDF processing.
   ** Severe  ** IP: Already an Object called GENERATOR:COMBUSTIONTURBINE. This definition ignored.
   **   ~~~   ** IP: Errors occured in ObjectDefinition for Class=GENERATOR:COMBUSTIONTURBINE, Object not available for IDF processing.
   ** Severe  ** IP: Already an Object called GENERATOR:MICROTURBINE. This definition ignored.
   **   ~~~   ** IP: Errors occured in ObjectDefinition for Class=GENERATOR:MICROTURBINE, Object not available for IDF processing.
   ** Severe  ** IP: Already an Object called GENERATOR:PHOTOVOLTAIC. This definition ignored.
   **   ~~~   ** IP: Errors occured in ObjectDefinition for Class=GENERATOR:PHOTOVOLTAIC, Object not available for IDF processing.
   ** Severe  ** IP: Already an Object called PHOTOVOLTAICPERFORMANCE:SIMPLE. This definition ignored.
   **   ~~~   ** IP: Errors occured in ObjectDefinition for Class=PHOTOVOLTAICPERFORMANCE:SIMPLE, Object not available for IDF processing.
   ** Severe  ** IP: Already an Object called PHOTOVOLTAICPERFORMANCE:EQUIVALENTONE-DIODE. This definition ignored.
   **   ~~~   ** IP: Errors occured in ObjectDefinition for Class=PHOTOVOLTAICPERFORMANCE:EQUIVALENTONE-DIODE, Object not available for IDF processing.
   ** Severe  ** IP: Already an Object called PHOTOVOLTAICPERFORMANCE:SANDIA. This definition ignored.
   **   ~~~   ** IP: Errors occured in ObjectDefinition for Class=PHOTOVOLTAICPERFORMANCE:SANDIA, Object not available for IDF processing.
   ** Severe  ** IP: Already an Object called GENERATOR:FUELCELL. This definition ignored.
   **   ~~~   ** IP: Errors occured in ObjectDefinition for Class=GENERATOR:FUELCELL, Object not available for IDF processing.
   ** Severe  ** IP: Already an Object called ELECTRICLOADCENTER:INVERTER:SIMPLE. This definition ignored.
   **   ~~~   ** IP: Errors occured in ObjectDefinition for Class=ELECTRICLOADCENTER:INVERTER:SIMPLE, Object not available for IDF processing.
   ** Severe  ** IP: Already an Object called ELECTRICLOADCENTER:INVERTER:FUNCTIONOFPOWER. This definition ignored.
   **   ~~~   ** IP: Errors occured in ObjectDefinition for Class=ELECTRICLOADCENTER:INVERTER:FUNCTIONOFPOWER, Object not available for IDF processing.
   ** Severe  ** IP: Already an Object called ELECTRICLOADCENTER:INVERTER:LOOKUPTABLE. This definition ignored.
   **   ~~~   ** IP: Errors occured in ObjectDefinition for Class=ELECTRICLOADCENTER:INVERTER:LOOKUPTABLE, Object not available for IDF processing.
   ** Severe  ** IP: Already an Object called ELECTRICLOADCENTER:STORAGE:SIMPLE. This definition ignored.
   **   ~~~   ** IP: Errors occured in ObjectDefinition for Class=ELECTRICLOADCENTER:STORAGE:SIMPLE, Object not available for IDF processing.
   ** Severe  ** IP: Already an Object called ELECTRICLOADCENTER:STORAGE:BATTERY. This definition ignored.
   **   ~~~   ** IP: Errors occured in ObjectDefinition for Class=ELECTRICLOADCENTER:STORAGE:BATTERY, Object not available for IDF processing.
   ** Severe  ** IP: Already an Object called ELECTRICLOADCENTER:TRANSFORMER. This definition ignored.
   **   ~~~   ** IP: Errors occured in ObjectDefinition for Class=ELECTRICLOADCENTER:TRANSFORMER, Object not available for IDF processing.
   ** Severe  ** IP: Already an Object called ELECTRICLOADCENTER:DISTRIBUTION. This definition ignored.
   **   ~~~   ** IP: Errors occured in ObjectDefinition for Class=ELECTRICLOADCENTER:DISTRIBUTION, Object not available for IDF processing.
   ** Severe  ** IP: Already an Object called ELECTRICLOADCENTER:STORAGE:CONVERTER. This definition ignored.
   **   ~~~   ** IP: Errors occured in ObjectDefinition for Class=ELECTRICLOADCENTER:STORAGE:CONVERTER, Object not available for IDF processing.
   ** Severe  ** IP: Already an Object called WATERUSE:EQUIPMENT. This definition ignored.
   **   ~~~   ** IP: Errors occured in ObjectDefinition for Class=WATERUSE:EQUIPMENT, Object not available for IDF processing.
   ** Severe  ** IP: Already an Object called WATERUSE:CONNECTIONS. This definition ignored.
   **   ~~~   ** IP: Errors occured in ObjectDefinition for Class=WATERUSE:CONNECTIONS, Object not available for IDF processing.
   ** Severe  ** IP: Already an Object called WATERUSE:STORAGE. This definition ignored.
   **   ~~~   ** IP: Errors occured in ObjectDefinition for Class=WATERUSE:STORAGE, Object not available for IDF processing.
   ** Severe  ** IP: Already an Object called WATERUSE:WELL. This definition ignored.
   **   ~~~   ** IP: Errors occured in ObjectDefinition for Class=WATERUSE:WELL, Object not available for IDF processing.
   ** Severe  ** IP: Already an Object called WATERUSE:RAINCOLLECTOR. This definition ignored.
   **   ~~~   ** IP: Errors occured in ObjectDefinition for Class=WATERUSE:RAINCOLLECTOR, Object not available for IDF processing.
   ** Severe  ** IP: Already an Object called FAULTMODEL:TEMPERATURESENSOROFFSET:OUTDOORAIR. This definition ignored.
   **   ~~~   ** IP: Errors occured in ObjectDefinition for Class=FAULTMODEL:TEMPERATURESENSOROFFSET:OUTDOORAIR, Object not available for IDF processing.
   ** Severe  ** IP: Already an Object called FAULTMODEL:HUMIDITYSENSOROFFSET:OUTDOORAIR. This definition ignored.
   **   ~~~   ** IP: Errors occured in ObjectDefinition for Class=FAULTMODEL:HUMIDITYSENSOROFFSET:OUTDOORAIR, Object not available for IDF processing.
   ** Severe  ** IP: Already an Object called FAULTMODEL:ENTHALPYSENSOROFFSET:OUTDOORAIR. This definition ignored.
   **   ~~~   ** IP: Errors occured in ObjectDefinition for Class=FAULTMODEL:ENTHALPYSENSOROFFSET:OUTDOORAIR, Object not available for IDF processing.
   ** Severe  ** IP: Already an Object called FAULTMODEL:PRESSURESENSOROFFSET:OUTDOORAIR. This definition ignored.
   **   ~~~   ** IP: Errors occured in ObjectDefinition for Class=FAULTMODEL:PRESSURESENSOROFFSET:OUTDOORAIR, Object not available for IDF processing.
   ** Severe  ** IP: Already an Object called FAULTMODEL:TEMPERATURESENSOROFFSET:RETURNAIR. This definition ignored.
   **   ~~~   ** IP: Errors occured in ObjectDefinition for Class=FAULTMODEL:TEMPERATURESENSOROFFSET:RETURNAIR, Object not available for IDF processing.
   ** Severe  ** IP: Already an Object called FAULTMODEL:ENTHALPYSENSOROFFSET:RETURNAIR. This definition ignored.
   **   ~~~   ** IP: Errors occured in ObjectDefinition for Class=FAULTMODEL:ENTHALPYSENSOROFFSET:RETURNAIR, Object not available for IDF processing.
   ** Severe  ** IP: Already an Object called FAULTMODEL:TEMPERATURESENSOROFFSET:CHILLERSUPPLYWATER. This definition ignored.
   **   ~~~   ** IP: Errors occured in ObjectDefinition for Class=FAULTMODEL:TEMPERATURESENSOROFFSET:CHILLERSUPPLYWATER, Object not available for IDF processing.
   ** Severe  ** IP: Already an Object called FAULTMODEL:TEMPERATURESENSOROFFSET:COILSUPPLYAIR. This definition ignored.
   **   ~~~   ** IP: Errors occured in ObjectDefinition for Class=FAULTMODEL:TEMPERATURESENSOROFFSET:COILSUPPLYAIR, Object not available for IDF processing.
   ** Severe  ** IP: Already an Object called FAULTMODEL:TEMPERATURESENSOROFFSET:CONDENSERSUPPLYWATER. This definition ignored.
   **   ~~~   ** IP: Errors occured in ObjectDefinition for Class=FAULTMODEL:TEMPERATURESENSOROFFSET:CONDENSERSUPPLYWATER, Object not available for IDF processing.
   ** Severe  ** IP: Already an Object called FAULTMODEL:THERMOSTATOFFSET. This definition ignored.
   **   ~~~   ** IP: Errors occured in ObjectDefinition for Class=FAULTMODEL:THERMOSTATOFFSET, Object not available for IDF processing.
   ** Severe  ** IP: Already an Object called FAULTMODEL:HUMIDISTATOFFSET. This definition ignored.
   **   ~~~   ** IP: Errors occured in ObjectDefinition for Class=FAULTMODEL:HUMIDISTATOFFSET, Object not available for IDF processing.
   ** Severe  ** IP: Already an Object called FAULTMODEL:FOULING:AIRFILTER. This definition ignored.
   **   ~~~   ** IP: Errors occured in ObjectDefinition for Class=FAULTMODEL:FOULING:AIRFILTER, Object not available for IDF processing.
   ** Severe  ** IP: Already an Object called FAULTMODEL:FOULING:BOILER. This definition ignored.
   **   ~~~   ** IP: Errors occured in ObjectDefinition for Class=FAULTMODEL:FOULING:BOILER, Object not available for IDF processing.
   ** Severe  ** IP: Already an Object called FAULTMODEL:FOULING:EVAPORATIVECOOLER. This definition ignored.
   **   ~~~   ** IP: Errors occured in ObjectDefinition for Class=FAULTMODEL:FOULING:EVAPORATIVECOOLER, Object not available for IDF processing.
   ** Severe  ** IP: Already an Object called FAULTMODEL:FOULING:CHILLER. This definition ignored.
   **   ~~~   ** IP: Errors occured in ObjectDefinition for Class=FAULTMODEL:FOULING:CHILLER, Object not available for IDF processing.
   ** Severe  ** IP: Already an Object called FAULTMODEL:FOULING:COOLINGTOWER. This definition ignored.
   **   ~~~   ** IP: Errors occured in ObjectDefinition for Class=FAULTMODEL:FOULING:COOLINGTOWER, Object not available for IDF processing.
   ** Severe  ** IP: Already an Object called FAULTMODEL:FOULING:COIL. This definition ignored.
   **   ~~~   ** IP: Errors occured in ObjectDefinition for Class=FAULTMODEL:FOULING:COIL, Object not available for IDF processing.
   ** Severe  ** IP: IDD line~42407 , or ; expected on this line,position="1758     \key VolumetricFlow"
   **   ~~~   ** IP: Errors occured in ObjectDefinition for Class=MATRIX:TWODIMENSION, Object not available for IDF processing.
   ** Severe  ** IP: Already an Object called CURVE:FUNCTIONAL:PRESSUREDROP. This definition ignored.
   **   ~~~   ** IP: Errors occured in ObjectDefinition for Class=CURVE:FUNCTIONAL:PRESSUREDROP, Object not available for IDF processing.
   ** Severe  ** IP: Already an Object called CURVE:FANPRESSURERISE. This definition ignored.
   **   ~~~   ** IP: Errors occured in ObjectDefinition for Class=CURVE:FANPRESSURERISE, Object not available for IDF processing.
   ** Severe  ** IP: Already an Object called CURVE:EXPONENTIALSKEWNORMAL. This definition ignored.
   **   ~~~   ** IP: Errors occured in ObjectDefinition for Class=CURVE:EXPONENTIALSKEWNORMAL, Object not available for IDF processing.
   ** Severe  ** IP: Already an Object called CURVE:SIGMOID. This definition ignored.
   **   ~~~   ** IP: Errors occured in ObjectDefinition for Class=CURVE:SIGMOID, Object not available for IDF processing.
   ** Severe  ** IP: Already an Object called CURVE:RECTANGULARHYPERBOLA1. This definition ignored.
   **   ~~~   ** IP: Errors occured in ObjectDefinition for Class=CURVE:RECTANGULARHYPERBOLA1, Object not available for IDF processing.
   ** Severe  ** IP: Already an Object called CURVE:RECTANGULARHYPERBOLA2. This definition ignored.
   **   ~~~   ** IP: Errors occured in ObjectDefinition for Class=CURVE:RECTANGULARHYPERBOLA2, Object not available for IDF processing.
   ** Severe  ** IP: Already an Object called CURVE:EXPONENTIALDECAY. This definition ignored.
   **   ~~~   ** IP: Errors occured in ObjectDefinition for Class=CURVE:EXPONENTIALDECAY, Object not available for IDF processing.
   ** Severe  ** IP: Already an Object called CURVE:DOUBLEEXPONENTIALDECAY. This definition ignored.
   **   ~~~   ** IP: Errors occured in ObjectDefinition for Class=CURVE:DOUBLEEXPONENTIALDECAY, Object not available for IDF processing.
   ** Severe  ** IP: Already an Object called CURVE:CHILLERPARTLOADWITHLIFT. This definition ignored.
   **   ~~~   ** IP: Errors occured in ObjectDefinition for Class=CURVE:CHILLERPARTLOADWITHLIFT, Object not available for IDF processing.
   ** Severe  ** IP: Already an Object called TABLE:ONEINDEPENDENTVARIABLE. This definition ignored.
   **   ~~~   ** IP: Errors occured in ObjectDefinition for Class=TABLE:ONEINDEPENDENTVARIABLE, Object not available for IDF processing.
   ** Severe  ** IP: Already an Object called TABLE:TWOINDEPENDENTVARIABLES. This definition ignored.
   **   ~~~   ** IP: Errors occured in ObjectDefinition for Class=TABLE:TWOINDEPENDENTVARIABLES, Object not available for IDF processing.
   ** Severe  ** IP: Already an Object called TABLE:MULTIVARIABLELOOKUP. This definition ignored.
   **   ~~~   ** IP: Errors occured in ObjectDefinition for Class=TABLE:MULTIVARIABLELOOKUP, Object not available for IDF processing.
   ** Severe  ** IP: Already an Object called FLUIDPROPERTIES:NAME. This definition ignored.
   **   ~~~   ** IP: Errors occured in ObjectDefinition for Class=FLUIDPROPERTIES:NAME, Object not available for IDF processing.
   ** Severe  ** IP: Already an Object called FLUIDPROPERTIES:GLYCOLCONCENTRATION. This definition ignored.
   **   ~~~   ** IP: Errors occured in ObjectDefinition for Class=FLUIDPROPERTIES:GLYCOLCONCENTRATION, Object not available for IDF processing.
   ** Severe  ** IP: Already an Object called FLUIDPROPERTIES:TEMPERATURES. This definition ignored.
   **   ~~~   ** IP: Errors occured in ObjectDefinition for Class=FLUIDPROPERTIES:TEMPERATURES, Object not available for IDF processing.
   ** Severe  ** IP: Already an Object called CURRENCYTYPE. This definition ignored.
   **   ~~~   ** IP: Errors occured in ObjectDefinition for Class=CURRENCYTYPE, Object not available for IDF processing.
   ** Severe  ** IP: Already an Object called COMPONENTCOST:ADJUSTMENTS. This definition ignored.
   **   ~~~   ** IP: Errors occured in ObjectDefinition for Class=COMPONENTCOST:ADJUSTMENTS, Object not available for IDF processing.
   ** Severe  ** IP: Already an Object called COMPONENTCOST:REFERENCE. This definition ignored.
   **   ~~~   ** IP: Errors occured in ObjectDefinition for Class=COMPONENTCOST:REFERENCE, Object not available for IDF processing.
   ** Severe  ** IP: Already an Object called COMPONENTCOST:LINEITEM. This definition ignored.
   **   ~~~   ** IP: Errors occured in ObjectDefinition for Class=COMPONENTCOST:LINEITEM, Object not available for IDF processing.
   ** Severe  ** IP: Already an Object called UTILITYCOST:TARIFF. This definition ignored.
   **   ~~~   ** IP: Errors occured in ObjectDefinition for Class=UTILITYCOST:TARIFF, Object not available for IDF processing.
   ** Severe  ** IP: Already an Object called UTILITYCOST:QUALIFY. This definition ignored.
   **   ~~~   ** IP: Errors occured in ObjectDefinition for Class=UTILITYCOST:QUALIFY, Object not available for IDF processing.
   ** Severe  ** IP: Already an Object called UTILITYCOST:CHARGE:SIMPLE. This definition ignored.
   **   ~~~   ** IP: Errors occured in ObjectDefinition for Class=UTILITYCOST:CHARGE:SIMPLE, Object not available for IDF processing.
   ** Severe  ** IP: Already an Object called UTILITYCOST:CHARGE:BLOCK. This definition ignored.
   **   ~~~   ** IP: Errors occured in ObjectDefinition for Class=UTILITYCOST:CHARGE:BLOCK, Object not available for IDF processing.
   ** Severe  ** IP: Already an Object called UTILITYCOST:RATCHET. This definition ignored.
   **   ~~~   ** IP: Errors occured in ObjectDefinition for Class=UTILITYCOST:RATCHET, Object not available for IDF processing.
   ** Severe  ** IP: Already an Object called UTILITYCOST:VARIABLE. This definition ignored.
   **   ~~~   ** IP: Errors occured in ObjectDefinition for Class=UTILITYCOST:VARIABLE, Object not available for IDF processing.
   ** Severe  ** IP: Already an Object called UTILITYCOST:COMPUTATION. This definition ignored.
   **   ~~~   ** IP: Errors occured in ObjectDefinition for Class=UTILITYCOST:COMPUTATION, Object not available for IDF processing.
   ** Severe  ** IP: Already an Object called LIFECYCLECOST:PARAMETERS. This definition ignored.
   **   ~~~   ** IP: Errors occured in ObjectDefinition for Class=LIFECYCLECOST:PARAMETERS, Object not available for IDF processing.
   ** Severe  ** IP: Already an Object called LIFECYCLECOST:RECURRINGCOSTS. This definition ignored.
   **   ~~~   ** IP: Errors occured in ObjectDefinition for Class=LIFECYCLECOST:RECURRINGCOSTS, Object not available for IDF processing.
   ** Severe  ** IP: Already an Object called LIFECYCLECOST:NONRECURRINGCOST. This definition ignored.
   **   ~~~   ** IP: Errors occured in ObjectDefinition for Class=LIFECYCLECOST:NONRECURRINGCOST, Object not available for IDF processing.
   ** Severe  ** IP: Already an Object called LIFECYCLECOST:USEPRICEESCALATION. This definition ignored.
   **   ~~~   ** IP: Errors occured in ObjectDefinition for Class=LIFECYCLECOST:USEPRICEESCALATION, Object not available for IDF processing.
   ** Severe  ** IP: IDD line~47582 , or ; expected on this line,position="ceGainsMonthly"
   ** Warning ** IP: IDD line~47582 \ expected on this line
   **   ~~~   ** IP: Errors occured in ObjectDefinition for Class=LIFECYCLECOST:USEADJUSTMENT, Object not available for IDF processing.
   ** Severe  ** IP: IDF line~10 Did not find "Version" in list of Objects
   ** Severe  ** IP: IDF line~16 Did not find "SimulationControl" in list of Objects
   ** Severe  ** IP: IDF line~26 Did not find "Building" in list of Objects
   ** Severe  ** IP: IDF line~39 Did not find "ShadowCalculation" in list of Objects
   ** Severe  ** IP: IDF line~47 Did not find "SurfaceConvectionAlgorithm:Inside" in list of Objects
   ** Severe  ** IP: IDF line~53 Did not find "SurfaceConvectionAlgorithm:Outside" in list of Objects
   ** Severe  ** IP: IDF line~59 Did not find "HeatBalanceAlgorithm" in list of Objects
   ** Severe  ** IP: IDF line~68 Did not find "Timestep" in list of Objects
   ** Severe  ** IP: IDF line~74 Did not find "RunPeriod" in list of Objects
   ** Severe  ** IP: IDF line~91 Did not find "ScheduleTypeLimits" in list of Objects
   ** Severe  ** IP: IDF line~94 Did not find "ScheduleTypeLimits" in list of Objects
   ** Severe  ** IP: IDF line~100 Did not find "ScheduleTypeLimits" in list of Objects
   ** Severe  ** IP: IDF line~106 Did not find "ScheduleTypeLimits" in list of Objects
   ** Severe  ** IP: IDF line~115 Did not find "Schedule:Compact" in list of Objects
   ** Severe  ** IP: IDF line~130 Did not find "Schedule:Compact" in list of Objects
   ** Severe  ** IP: IDF line~138 Did not find "Schedule:Compact" in list of Objects
   ** Severe  ** IP: IDF line~153 Did not find "Schedule:Compact" in list of Objects
   ** Severe  ** IP: IDF line~163 Did not find "Schedule:Compact" in list of Objects
   ** Severe  ** IP: IDF line~186 Did not find "Schedule:Compact" in list of Objects
   ** Severe  ** IP: IDF line~202 Did not find "Schedule:Compact" in list of Objects
   ** Severe  ** IP: IDF line~218 Did not find "Schedule:Compact" in list of Objects
   ** Severe  ** IP: IDF line~241 Did not find "Schedule:Compact" in list of Objects
   ** Severe  ** IP: IDF line~261 Did not find "Schedule:Compact" in list of Objects
   ** Severe  ** IP: IDF line~277 Did not find "Schedule:Compact" in list of Objects
   ** Severe  ** IP: IDF line~285 Did not find "Schedule:Compact" in list of Objects
   ** Severe  ** IP: IDF line~337 Did not find "Schedule:Compact" in list of Objects
   ** Severe  ** IP: IDF line~389 Did not find "Schedule:Compact" in list of Objects
   ** Severe  ** IP: IDF line~399 Did not find "Schedule:Compact" in list of Objects
   ** Severe  ** IP: IDF line~411 Did not find "Schedule:Compact" in list of Objects
   ** Severe  ** IP: IDF line~419 Did not find "Schedule:Compact" in list of Objects
   ** Severe  ** IP: IDF line~438 Did not find "Schedule:Constant" in list of Objects
   ** Severe  ** IP: IDF line~443 Did not find "Schedule:Constant" in list of Objects
   ** Severe  ** IP: IDF line~448 Did not find "Schedule:Constant" in list of Objects
   ** Severe  ** IP: IDF line~453 Did not find "Schedule:Constant" in list of Objects
   ** Severe  ** IP: IDF line~458 Did not find "Schedule:Constant" in list of Objects
   ** Severe  ** IP: IDF line~463 Did not find "Schedule:Constant" in list of Objects
   ** Severe  ** IP: IDF line~468 Did not find "Schedule:Constant" in list of Objects
   ** Severe  ** IP: IDF line~473 Did not find "Schedule:Constant" in list of Objects
   ** Severe  ** IP: IDF line~481 Did not find "Material" in list of Objects
   ** Severe  ** IP: IDF line~492 Did not find "Material" in list of Objects
   ** Severe  ** IP: IDF line~503 Did not find "Material" in list of Objects
   ** Severe  ** IP: IDF line~514 Did not find "Material" in list of Objects
   ** Severe  ** IP: IDF line~525 Did not find "Material" in list of Objects
   ** Severe  ** IP: IDF line~536 Did not find "Material" in list of Objects
   ** Severe  ** IP: IDF line~547 Did not find "Material" in list of Objects
   ** Severe  ** IP: IDF line~558 Did not find "Material" in list of Objects
   ** Severe  ** IP: IDF line~569 Did not find "Material" in list of Objects
   ** Severe  ** IP: IDF line~580 Did not find "Material" in list of Objects
   ** Severe  ** IP: IDF line~591 Did not find "Material" in list of Objects
   ** Severe  ** IP: IDF line~602 Did not find "Material" in list of Objects
   ** Severe  ** IP: IDF line~613 Did not find "Material" in list of Objects
   ** Severe  ** IP: IDF line~624 Did not find "Material" in list of Objects
   ** Severe  ** IP: IDF line~635 Did not find "Material" in list of Objects
   ** Severe  ** IP: IDF line~646 Did not find "Material" in list of Objects
   ** Severe  ** IP: IDF line~657 Did not find "Material" in list of Objects
   ** Severe  ** IP: IDF line~668 Did not find "Material" in list of Objects
   ** Severe  ** IP: IDF line~679 Did not find "Material" in list of Objects
   ** Severe  ** IP: IDF line~690 Did not find "Material" in list of Objects
   ** Severe  ** IP: IDF line~701 Did not find "Material" in list of Objects
   ** Severe  ** IP: IDF line~712 Did not find "Material" in list of Objects
   ** Severe  ** IP: IDF line~723 Did not find "Material" in list of Objects
   ** Severe  ** IP: IDF line~734 Did not find "Material" in list of Objects
   ** Severe  ** IP: IDF line~745 Did not find "Material" in list of Objects
   ** Severe  ** IP: IDF line~756 Did not find "Material" in list of Objects
   ** Severe  ** IP: IDF line~770 Did not find "Material:NoMass" in list of Objects
   ** Severe  ** IP: IDF line~778 Did not find "Material:NoMass" in list of Objects
   ** Severe  ** IP: IDF line~786 Did not find "Material:NoMass" in list of Objects
   ** Severe  ** IP: IDF line~794 Did not find "Material:NoMass" in list of Objects
   ** Severe  ** IP: IDF line~802 Did not find "Material:NoMass" in list of Objects
   ** Severe  ** IP: IDF line~813 Did not find "Material:AirGap" in list of Objects
   ** Severe  ** IP: IDF line~817 Did not find "Material:AirGap" in list of Objects
   ** Severe  ** IP: IDF line~824 Did not find "WindowMaterial:SimpleGlazingSystem" in list of Objects
   ** Severe  ** IP: IDF line~829 Did not find "WindowMaterial:SimpleGlazingSystem" in list of Objects
   ** Severe  ** IP: IDF line~834 Did not find "WindowMaterial:SimpleGlazingSystem" in list of Objects
   ** Severe  ** IP: IDF line~842 Did not find "WindowMaterial:Glazing" in list of Objects
   ** Severe  ** IP: IDF line~865 Did not find "WindowMaterial:Gas" in list of Objects
   ** Severe  ** IP: IDF line~873 Did not find "WindowMaterial:Blind" in list of Objects
   ** Severe  ** IP: IDF line~907 Did not find "Construction" in list of Objects
   ** Severe  ** IP: IDF line~917 Did not find "Construction" in list of Objects
   ** Severe  ** IP: IDF line~921 Did not find "Construction" in list of Objects
   ** Severe  ** IP: IDF line~925 Did not find "Construction" in list of Objects
   ** Severe  ** IP: IDF line~933 Did not find "Construction" in list of Objects
   ** Severe  ** IP: IDF line~941 Did not find "Construction" in list of Objects
   ** Severe  ** IP: IDF line~949 Did not find "Construction" in list of Objects
   ** Severe  ** IP: IDF line~957 Did not find "Construction" in list of Objects
   ** Severe  ** IP: IDF line~965 Did not find "Construction" in list of Objects
   ** Severe  ** IP: IDF line~973 Did not find "Construction" in list of Objects
   ** Severe  ** IP: IDF line~981 Did not find "Construction" in list of Objects
   ** Severe  ** IP: IDF line~989 Did not find "Construction" in list of Objects
   ** Severe  ** IP: IDF line~997 Did not find "Construction" in list of Objects
   ** Severe  ** IP: IDF line~1005 Did not find "Construction" in list of Objects
   ** Severe  ** IP: IDF line~1011 Did not find "Construction" in list of Objects
   ** Severe  ** IP: IDF line~1019 Did not find "Construction" in list of Objects
   ** Severe  ** IP: IDF line~1027 Did not find "Construction" in list of Objects
   ** Severe  ** IP: IDF line~1033 Did not find "Construction" in list of Objects
   ** Severe  ** IP: IDF line~1037 Did not find "Construction" in list of Objects
   ** Severe  ** IP: IDF line~1041 Did not find "Construction" in list of Objects
   ** Severe  ** IP: IDF line~1045 Did not find "Construction" in list of Objects
   ** Severe  ** IP: IDF line~1055 Did not find "Construction" in list of Objects
   ** Severe  ** IP: IDF line~1065 Did not find "Construction" in list of Objects
   ** Severe  ** IP: IDF line~1075 Did not find "Construction" in list of Objects
   ** Severe  ** IP: IDF line~1085 Did not find "Construction" in list of Objects
   ** Severe  ** IP: IDF line~1095 Did not find "Construction" in list of Objects
   ** Severe  ** IP: IDF line~1105 Did not find "Construction" in list of Objects
   ** Severe  ** IP: IDF line~1115 Did not find "Construction" in list of Objects
   ** Severe  ** IP: IDF line~1128 Did not find "GlobalGeometryRules" in list of Objects
   ** Severe  ** IP: IDF line~1138 Did not find "Zone" in list of Objects
   ** Severe  ** IP: IDF line~1145 Did not find "Zone" in list of Objects
   ** Severe  ** IP: IDF line~1152 Did not find "Zone" in list of Objects
   ** Severe  ** IP: IDF line~1159 Did not find "Zone" in list of Objects
   ** Severe  ** IP: IDF line~1166 Did not find "Zone" in list of Objects
   ** Severe  ** IP: IDF line~1173 Did not find "Zone" in list of Objects
   ** Severe  ** IP: IDF line~1180 Did not find "Zone" in list of Objects
   ** Severe  ** IP: IDF line~1187 Did not find "Zone" in list of Objects
   ** Severe  ** IP: IDF line~1194 Did not find "Zone" in list of Objects
   ** Severe  ** IP: IDF line~1201 Did not find "Zone" in list of Objects
   ** Severe  ** IP: IDF line~1208 Did not find "Zone" in list of Objects
   ** Severe  ** IP: IDF line~1215 Did not find "Zone" in list of Objects
   ** Severe  ** IP: IDF line~1222 Did not find "Zone" in list of Objects
   ** Severe  ** IP: IDF line~1229 Did not find "Zone" in list of Objects
   ** Severe  ** IP: IDF line~1236 Did not find "Zone" in list of Objects
   ** Severe  ** IP: IDF line~1243 Did not find "Zone" in list of Objects
   ** Severe  ** IP: IDF line~1250 Did not find "Zone" in list of Objects
   ** Severe  ** IP: IDF line~1257 Did not find "Zone" in list of Objects
   ** Severe  ** IP: IDF line~1264 Did not find "Zone" in list of Objects
   ** Severe  ** IP: IDF line~1271 Did not find "Zone" in list of Objects
   ** Severe  ** IP: IDF line~1278 Did not find "Zone" in list of Objects
   ** Severe  ** IP: IDF line~1285 Did not find "Zone" in list of Objects
   ** Severe  ** IP: IDF line~1292 Did not find "Zone" in list of Objects
   ** Severe  ** IP: IDF line~1299 Did not find "Zone" in list of Objects
   ** Severe  ** IP: IDF line~1306 Did not find "Zone" in list of Objects
   ** Severe  ** IP: IDF line~1313 Did not find "Zone" in list of Objects
   ** Severe  ** IP: IDF line~1320 Did not find "Zone" in list of Objects
   ** Severe  ** IP: IDF line~1327 Did not find "Zone" in list of Objects
   ** Severe  ** IP: IDF line~1334 Did not find "Zone" in list of Objects
   ** Severe  ** IP: IDF line~1341 Did not find "Zone" in list of Objects
   ** Severe  ** IP: IDF line~1348 Did not find "Zone" in list of Objects
   ** Severe  ** IP: IDF line~1355 Did not find "Zone" in list of Objects
   ** Severe  ** IP: IDF line~1362 Did not find "Zone" in list of Objects
   ** Severe  ** IP: IDF line~1369 Did not find "Zone" in list of Objects
   ** Severe  ** IP: IDF line~1376 Did not find "Zone" in list of Objects
   ** Severe  ** IP: IDF line~1383 Did not find "Zone" in list of Objects
   ** Severe  ** IP: IDF line~1390 Did not find "Zone" in list of Objects
   ** Severe  ** IP: IDF line~1397 Did not find "Zone" in list of Objects
   ** Severe  ** IP: IDF line~1404 Did not find "Zone" in list of Objects
   ** Severe  ** IP: IDF line~1411 Did not find "Zone" in list of Objects
   ** Severe  ** IP: IDF line~1418 Did not find "Zone" in list of Objects
   ** Severe  ** IP: IDF line~1425 Did not find "Zone" in list of Objects
   ** Severe  ** IP: IDF line~1432 Did not find "Zone" in list of Objects
   ** Severe  ** IP: IDF line~1439 Did not find "Zone" in list of Objects
   ** Severe  ** IP: IDF line~1446 Did not find "Zone" in list of Objects
   ** Severe  ** IP: IDF line~1453 Did not find "Zone" in list of Objects
   ** Severe  ** IP: IDF line~1460 Did not find "Zone" in list of Objects
   ** Severe  ** IP: IDF line~1467 Did not find "Zone" in list of Objects
   ** Severe  ** IP: IDF line~1474 Did not find "Zone" in list of Objects
   ** Severe  ** IP: IDF line~1481 Did not find "Zone" in list of Objects
   ** Severe  ** IP: IDF line~1488 Did not find "Zone" in list of Objects
   ** Severe  ** IP: IDF line~1495 Did not find "Zone" in list of Objects
   ** Severe  ** IP: IDF line~1502 Did not find "Zone" in list of Objects
   ** Severe  ** IP: IDF line~1509 Did not find "Zone" in list of Objects
   ** Severe  ** IP: IDF line~1516 Did not find "Zone" in list of Objects
   ** Severe  ** IP: IDF line~1523 Did not find "Zone" in list of Objects
   ** Severe  ** IP: IDF line~1530 Did not find "Zone" in list of Objects
   ** Severe  ** IP: IDF line~1537 Did not find "Zone" in list of Objects
   ** Severe  ** IP: IDF line~1544 Did not find "Zone" in list of Objects
   ** Severe  ** IP: IDF line~1551 Did not find "Zone" in list of Objects
   ** Severe  ** IP: IDF line~1558 Did not find "Zone" in list of Objects
   ** Severe  ** IP: IDF line~1565 Did not find "Zone" in list of Objects
   ** Severe  ** IP: IDF line~1572 Did not find "Zone" in list of Objects
   ** Severe  ** IP: IDF line~1579 Did not find "Zone" in list of Objects
   ** Severe  ** IP: IDF line~1586 Did not find "Zone" in list of Objects
   ** Severe  ** IP: IDF line~1593 Did not find "Zone" in list of Objects
   ** Severe  ** IP: IDF line~1600 Did not find "Zone" in list of Objects
   ** Severe  ** IP: IDF line~1607 Did not find "Zone" in list of Objects
   ** Severe  ** IP: IDF line~1614 Did not find "Zone" in list of Objects
   ** Severe  ** IP: IDF line~1621 Did not find "Zone" in list of Objects
   ** Severe  ** IP: IDF line~1628 Did not find "Zone" in list of Objects
   ** Severe  ** IP: IDF line~1635 Did not find "Zone" in list of Objects
   ** Severe  ** IP: IDF line~1642 Did not find "Zone" in list of Objects
   ** Severe  ** IP: IDF line~1649 Did not find "Zone" in list of Objects
   ** Severe  ** IP: IDF line~1656 Did not find "Zone" in list of Objects
   ** Severe  ** IP: IDF line~1663 Did not find "Zone" in list of Objects
   ** Severe  ** IP: IDF line~1670 Did not find "Zone" in list of Objects
   ** Severe  ** IP: IDF line~1677 Did not find "Zone" in list of Objects
   ** Severe  ** IP: IDF line~1684 Did not find "Zone" in list of Objects
   ** Severe  ** IP: IDF line~1691 Did not find "Zone" in list of Objects
   ** Severe  ** IP: IDF line~1698 Did not find "Zone" in list of Objects
   ** Severe  ** IP: IDF line~1705 Did not find "Zone" in list of Objects
   ** Severe  ** IP: IDF line~1712 Did not find "Zone" in list of Objects
   ** Severe  ** IP: IDF line~1719 Did not find "Zone" in list of Objects
   ** Severe  ** IP: IDF line~1726 Did not find "Zone" in list of Objects
   ** Severe  ** IP: IDF line~1733 Did not find "Zone" in list of Objects
   ** Severe  ** IP: IDF line~1740 Did not find "Zone" in list of Objects
   ** Severe  ** IP: IDF line~1747 Did not find "Zone" in list of Objects
   ** Severe  ** IP: IDF line~1754 Did not find "Zone" in list of Objects
   ** Severe  ** IP: IDF line~1761 Did not find "Zone" in list of Objects
   ** Severe  ** IP: IDF line~1768 Did not find "Zone" in list of Objects
   ** Severe  ** IP: IDF line~1775 Did not find "Zone" in list of Objects
   ** Severe  ** IP: IDF line~1782 Did not find "Zone" in list of Objects
   ** Severe  ** IP: IDF line~1789 Did not find "Zone" in list of Objects
   ** Severe  ** IP: IDF line~1796 Did not find "Zone" in list of Objects
   ** Severe  ** IP: IDF line~1803 Did not find "Zone" in list of Objects
   ** Severe  ** IP: IDF line~1810 Did not find "Zone" in list of Objects
   ** Severe  ** IP: IDF line~1817 Did not find "Zone" in list of Objects
   ** Severe  ** IP: IDF line~1824 Did not find "Zone" in list of Objects
   ** Severe  ** IP: IDF line~1831 Did not find "Zone" in list of Objects
   ** Severe  ** IP: IDF line~1838 Did not find "Zone" in list of Objects
   ** Severe  ** IP: IDF line~1845 Did not find "Zone" in list of Objects
   ** Severe  ** IP: IDF line~1852 Did not find "Zone" in list of Objects
   ** Severe  ** IP: IDF line~1859 Did not find "Zone" in list of Objects
   ** Severe  ** IP: IDF line~1866 Did not find "Zone" in list of Objects
   ** Severe  ** IP: IDF line~1873 Did not find "Zone" in list of Objects
   ** Severe  ** IP: IDF line~1880 Did not find "Zone" in list of Objects
   ** Severe  ** IP: IDF line~1887 Did not find "Zone" in list of Objects
   ** Severe  ** IP: IDF line~1894 Did not find "Zone" in list of Objects
   ** Severe  ** IP: IDF line~1901 Did not find "Zone" in list of Objects
   ** Severe  ** IP: IDF line~1908 Did not find "Zone" in list of Objects
   ** Severe  ** IP: IDF line~1915 Did not find "Zone" in list of Objects
   ** Severe  ** IP: IDF line~1922 Did not find "Zone" in list of Objects
   ** Severe  ** IP: IDF line~1929 Did not find "Zone" in list of Objects
   ** Severe  ** IP: IDF line~1936 Did not find "Zone" in list of Objects
   ** Severe  ** IP: IDF line~1943 Did not find "Zone" in list of Objects
   ** Severe  ** IP: IDF line~1950 Did not find "Zone" in list of Objects
   ** Severe  ** IP: IDF line~1957 Did not find "Zone" in list of Objects
   ** Severe  ** IP: IDF line~1964 Did not find "Zone" in list of Objects
   ** Severe  ** IP: IDF line~1971 Did not find "Zone" in list of Objects
   ** Severe  ** IP: IDF line~1978 Did not find "Zone" in list of Objects
   ** Severe  ** IP: IDF line~1985 Did not find "Zone" in list of Objects
   ** Severe  ** IP: IDF line~1992 Did not find "Zone" in list of Objects
   ** Severe  ** IP: IDF line~1999 Did not find "Zone" in list of Objects
   ** Severe  ** IP: IDF line~2006 Did not find "Zone" in list of Objects
   ** Severe  ** IP: IDF line~2013 Did not find "Zone" in list of Objects
   ** Severe  ** IP: IDF line~2020 Did not find "Zone" in list of Objects
   ** Severe  ** IP: IDF line~2027 Did not find "Zone" in list of Objects
   ** Severe  ** IP: IDF line~2034 Did not find "Zone" in list of Objects
   ** Severe  ** IP: IDF line~2041 Did not find "Zone" in list of Objects
   ** Severe  ** IP: IDF line~2051 Did not find "ZoneList" in list of Objects
   ** Severe  ** IP: IDF line~2124 Did not find "ZoneList" in list of Objects
   ** Severe  ** IP: IDF line~2247 Did not find "ZoneList" in list of Objects
   ** Severe  ** IP: IDF line~2270 Did not find "ZoneList" in list of Objects
   ** Severe  ** IP: IDF line~2283 Did not find "ZoneList" in list of Objects
   ** Severe  ** IP: IDF line~2306 Did not find "ZoneList" in list of Objects
   ** Severe  ** IP: IDF line~2339 Did not find "ZoneList" in list of Objects
   ** Severe  ** IP: IDF line~2355 Did not find "BuildingSurface:Detailed" in list of Objects
   ** Severe  ** IP: IDF line~2379 Did not find "BuildingSurface:Detailed" in list of Objects
   ** Severe  ** IP: IDF line~2403 Did not find "BuildingSurface:Detailed" in list of Objects
   ** Severe  ** IP: IDF line~2427 Did not find "BuildingSurface:Detailed" in list of Objects
   ** Severe  ** IP: IDF line~2451 Did not find "BuildingSurface:Detailed" in list of Objects
   ** Severe  ** IP: IDF line~2475 Did not find "BuildingSurface:Detailed" in list of Objects
   ** Severe  ** IP: IDF line~2499 Did not find "BuildingSurface:Detailed" in list of Objects
   ** Severe  ** IP: IDF line~2523 Did not find "BuildingSurface:Detailed" in list of Objects
   ** Severe  ** IP: IDF line~2547 Did not find "BuildingSurface:Detailed" in list of Objects
   ** Severe  ** IP: IDF line~2571 Did not find "BuildingSurface:Detailed" in list of Objects
   ** Severe  ** IP: IDF line~2595 Did not find "BuildingSurface:Detailed" in list of Objects
   ** Severe  ** IP: IDF line~2619 Did not find "BuildingSurface:Detailed" in list of Objects
   ** Severe  ** IP: IDF line~2643 Did not find "BuildingSurface:Detailed" in list of Objects
   ** Severe  ** IP: IDF line~2667 Did not find "BuildingSurface:Detailed" in list of Objects
   ** Severe  ** IP: IDF line~2691 Did not find "BuildingSurface:Detailed" in list of Objects
   ** Severe  ** IP: IDF line~2715 Did not find "BuildingSurface:Detailed" in list of Objects
   ** Severe  ** IP: IDF line~2739 Did not find "BuildingSurface:Detailed" in list of Objects
   ** Severe  ** IP: IDF line~2763 Did not find "BuildingSurface:Detailed" in list of Objects
   ** Severe  ** IP: IDF line~2787 Did not find "BuildingSurface:Detailed" in list of Objects
   ** Severe  ** IP: IDF line~2811 Did not find "BuildingSurface:Detailed" in list of Objects
   ** Severe  ** IP: IDF line~2835 Did not find "BuildingSurface:Detailed" in list of Objects
   ** Severe  ** IP: IDF line~2859 Did not find "BuildingSurface:Detailed" in list of Objects
   ** Severe  ** IP: IDF line~2901 Did not find "BuildingSurface:Detailed" in list of Objects
   ** Severe  ** IP: IDF line~2925 Did not find "BuildingSurface:Detailed" in list of Objects
   ** Severe  ** IP: IDF line~2949 Did not find "BuildingSurface:Detailed" in list of Objects
   ** Severe  ** IP: IDF line~2973 Did not find "BuildingSurface:Detailed" in list of Objects
   ** Severe  ** IP: IDF line~2997 Did not find "BuildingSurface:Detailed" in list of Objects
   ** Severe  ** IP: IDF line~3021 Did not find "BuildingSurface:Detailed" in list of Objects
   ** Severe  ** IP: IDF line~3045 Did not find "BuildingSurface:Detailed" in list of Objects
   ** Severe  ** IP: IDF line~3069 Did not find "BuildingSurface:Detailed" in list of Objects
   ** Severe  ** IP: IDF line~3093 Did not find "BuildingSurface:Detailed" in list of Objects
   ** Severe  ** IP: IDF line~3117 Did not find "BuildingSurface:Detailed" in list of Objects
   ** Severe  ** IP: IDF line~3141 Did not find "BuildingSurface:Detailed" in list of Objects
   ** Severe  ** IP: IDF line~3165 Did not find "BuildingSurface:Detailed" in list of Objects
   ** Severe  ** IP: IDF line~3189 Did not find "BuildingSurface:Detailed" in list of Objects
   ** Severe  ** IP: IDF line~3231 Did not find "BuildingSurface:Detailed" in list of Objects
   ** Severe  ** IP: IDF line~3255 Did not find "BuildingSurface:Detailed" in list of Objects
   ** Severe  ** IP: IDF line~3279 Did not find "BuildingSurface:Detailed" in list of Objects
   ** Severe  ** IP: IDF line~3303 Did not find "BuildingSurface:Detailed" in list of Objects
   ** Severe  ** IP: IDF line~3327 Did not find "BuildingSurface:Detailed" in list of Objects
   ** Severe  ** IP: IDF line~3351 Did not find "BuildingSurface:Detailed" in list of Objects
   ** Severe  ** IP: IDF line~3375 Did not find "BuildingSurface:Detailed" in list of Objects
   ** Severe  ** IP: IDF line~3399 Did not find "BuildingSurface:Detailed" in list of Objects
   ** Severe  ** IP: IDF line~3423 Did not find "BuildingSurface:Detailed" in list of Objects
   ** Severe  ** IP: IDF line~3447 Did not find "BuildingSurface:Detailed" in list of Objects
   ** Severe  ** IP: IDF line~3471 Did not find "BuildingSurface:Detailed" in list of Objects
   ** Severe  ** IP: IDF line~3495 Did not find "BuildingSurface:Detailed" in list of Objects
   ** Severe  ** IP: IDF line~3519 Did not find "BuildingSurface:Detailed" in list of Objects
   ** Severe  ** IP: IDF line~3543 Did not find "BuildingSurface:Detailed" in list of Objects
   ** Severe  ** IP: IDF line~3567 Did not find "BuildingSurface:Detailed" in list of Objects
   ** Severe  ** IP: IDF line~3591 Did not find "BuildingSurface:Detailed" in list of Objects
   ** Severe  ** IP: IDF line~3615 Did not find "BuildingSurface:Detailed" in list of Objects
   ** Severe  ** IP: IDF line~3639 Did not find "BuildingSurface:Detailed" in list of Objects
   ** Severe  ** IP: IDF line~3663 Did not find "BuildingSurface:Detailed" in list of Objects
   ** Severe  ** IP: IDF line~3687 Did not find "BuildingSurface:Detailed" in list of Objects
   ** Severe  ** IP: IDF line~3711 Did not find "BuildingSurface:Detailed" in list of Objects
   ** Severe  ** IP: IDF line~3735 Did not find "BuildingSurface:Detailed" in list of Objects
   ** Severe  ** IP: IDF line~3759 Did not find "BuildingSurface:Detailed" in list of Objects
   ** Severe  ** IP: IDF line~3783 Did not find "BuildingSurface:Detailed" in list of Objects
   ** Severe  ** IP: IDF line~3807 Did not find "BuildingSurface:Detailed" in list of Objects
   ** Severe  ** IP: IDF line~3831 Did not find "BuildingSurface:Detailed" in list of Objects
   ** Severe  ** IP: IDF line~3855 Did not find "BuildingSurface:Detailed" in list of Objects
   ** Severe  ** IP: IDF line~3879 Did not find "BuildingSurface:Detailed" in list of Objects
   ** Severe  ** IP: IDF line~3921 Did not find "BuildingSurface:Detailed" in list of Objects
   ** Severe  ** IP: IDF line~3945 Did not find "BuildingSurface:Detailed" in list of Objects
   ** Severe  ** IP: IDF line~3969 Did not find "BuildingSurface:Detailed" in list of Objects
   ** Severe  ** IP: IDF line~3993 Did not find "BuildingSurface:Detailed" in list of Objects
   ** Severe  ** IP: IDF line~4017 Did not find "BuildingSurface:Detailed" in list of Objects
[...]
   ** Severe  ** IP: IDF line~38363 Did not find "ZoneHVAC:IdealLoadsAirSystem" in list of Objects
   ** Severe  ** IP: IDF line~38391 Did not find "ZoneControl:Thermostat" in list of Objects
   ** Severe  ** IP: IDF line~38398 Did not find "ZoneHVAC:EquipmentConnections" in list of Objects
   ** Severe  ** IP: IDF line~38406 Did not find "ZoneHVAC:EquipmentList" in list of Objects
   ** Severe  ** IP: IDF line~38413 Did not find "ZoneHVAC:IdealLoadsAirSystem" in list of Objects
   ** Severe  ** IP: IDF line~38441 Did not find "ZoneControl:Thermostat" in list of Objects
   ** Severe  ** IP: IDF line~38448 Did not find "ZoneHVAC:EquipmentConnections" in list of Objects
   ** Severe  ** IP: IDF line~38456 Did not find "ZoneHVAC:EquipmentList" in list of Objects
   ** Severe  ** IP: IDF line~38463 Did not find "ZoneHVAC:IdealLoadsAirSystem" in list of Objects
   ** Severe  ** IP: IDF line~38491 Did not find "ZoneControl:Thermostat" in list of Objects
   ** Severe  ** IP: IDF line~38498 Did not find "ZoneHVAC:EquipmentConnections" in list of Objects
   ** Severe  ** IP: IDF line~38506 Did not find "ZoneHVAC:EquipmentList" in list of Objects
   ** Severe  ** IP: IDF line~38513 Did not find "ZoneHVAC:IdealLoadsAirSystem" in list of Objects
   ** Severe  ** IP: IDF line~38541 Did not find "ZoneControl:Thermostat" in list of Objects
   ** Severe  ** IP: IDF line~38548 Did not find "ZoneHVAC:EquipmentConnections" in list of Objects
   ** Severe  ** IP: IDF line~38556 Did not find "ZoneHVAC:EquipmentList" in list of Objects
   ** Severe  ** IP: IDF line~38563 Did not find "ZoneHVAC:IdealLoadsAirSystem" in list of Objects
   ** Severe  ** IP: IDF line~38591 Did not find "ZoneControl:Thermostat" in list of Objects
   ** Severe  ** IP: IDF line~38598 Did not find "ZoneHVAC:EquipmentConnections" in list of Objects
   ** Severe  ** IP: IDF line~38606 Did not find "ZoneHVAC:EquipmentList" in list of Objects
   ** Severe  ** IP: IDF line~38613 Did not find "ZoneHVAC:IdealLoadsAirSystem" in list of Objects
   ** Severe  ** IP: IDF line~38641 Did not find "ZoneControl:Thermostat" in list of Objects
   ** Severe  ** IP: IDF line~38648 Did not find "ZoneHVAC:EquipmentConnections" in list of Objects
   ** Severe  ** IP: IDF line~38656 Did not find "ZoneHVAC:EquipmentList" in list of Objects
   ** Severe  ** IP: IDF line~38663 Did not find "ZoneHVAC:IdealLoadsAirSystem" in list of Objects
   ** Severe  ** IP: IDF line~38691 Did not find "ZoneControl:Thermostat" in list of Objects
   ** Severe  ** IP: IDF line~38698 Did not find "ZoneHVAC:EquipmentConnections" in list of Objects
   ** Severe  ** IP: IDF line~38706 Did not find "ZoneHVAC:EquipmentList" in list of Objects
   ** Severe  ** IP: IDF line~38713 Did not find "ZoneHVAC:IdealLoadsAirSystem" in list of Objects
   ** Severe  ** IP: IDF line~38741 Did not find "ZoneControl:Thermostat" in list of Objects
   ** Severe  ** IP: IDF line~38748 Did not find "ZoneHVAC:EquipmentConnections" in list of Objects
   ** Severe  ** IP: IDF line~38756 Did not find "ZoneHVAC:EquipmentList" in list of Objects
   ** Severe  ** IP: IDF line~38763 Did not find "ZoneHVAC:IdealLoadsAirSystem" in list of Objects
   ** Severe  ** IP: IDF line~38791 Did not find "ZoneControl:Thermostat" in list of Objects
   ** Severe  ** IP: IDF line~38798 Did not find "ZoneHVAC:EquipmentConnections" in list of Objects
   ** Severe  ** IP: IDF line~38806 Did not find "ZoneHVAC:EquipmentList" in list of Objects
   ** Severe  ** IP: IDF line~38813 Did not find "ZoneHVAC:IdealLoadsAirSystem" in list of Objects
   ** Severe  ** IP: IDF line~38841 Did not find "ZoneControl:Thermostat" in list of Objects
   ** Severe  ** IP: IDF line~38848 Did not find "ZoneHVAC:EquipmentConnections" in list of Objects
   ** Severe  ** IP: IDF line~38856 Did not find "ZoneHVAC:EquipmentList" in list of Objects
   ** Severe  ** IP: IDF line~38863 Did not find "ZoneHVAC:IdealLoadsAirSystem" in list of Objects
   ** Severe  ** IP: IDF line~38891 Did not find "ZoneControl:Thermostat" in list of Objects
   ** Severe  ** IP: IDF line~38898 Did not find "ZoneHVAC:EquipmentConnections" in list of Objects
   ** Severe  ** IP: IDF line~38906 Did not find "ZoneHVAC:EquipmentList" in list of Objects
   ** Severe  ** IP: IDF line~38913 Did not find "ZoneHVAC:IdealLoadsAirSystem" in list of Objects
   ** Severe  ** IP: IDF line~38941 Did not find "ZoneControl:Thermostat" in list of Objects
   ** Severe  ** IP: IDF line~38948 Did not find "ZoneHVAC:EquipmentConnections" in list of Objects
   ** Severe  ** IP: IDF line~38956 Did not find "ZoneHVAC:EquipmentList" in list of Objects
   ** Severe  ** IP: IDF line~38963 Did not find "ZoneHVAC:IdealLoadsAirSystem" in list of Objects
   ** Severe  ** IP: IDF line~38991 Did not find "ZoneControl:Thermostat" in list of Objects
   ** Severe  ** IP: IDF line~38998 Did not find "ZoneHVAC:EquipmentConnections" in list of Objects
   ** Severe  ** IP: IDF line~39006 Did not find "ZoneHVAC:EquipmentList" in list of Objects
   ** Severe  ** IP: IDF line~39013 Did not find "ZoneHVAC:IdealLoadsAirSystem" in list of Objects
   ** Severe  ** IP: IDF line~39041 Did not find "ZoneControl:Thermostat" in list of Objects
   ** Severe  ** IP: IDF line~39048 Did not find "ZoneHVAC:EquipmentConnections" in list of Objects
   ** Severe  ** IP: IDF line~39056 Did not find "ZoneHVAC:EquipmentList" in list of Objects
   ** Severe  ** IP: IDF line~39063 Did not find "ZoneHVAC:IdealLoadsAirSystem" in list of Objects
   ** Severe  ** IP: IDF line~39091 Did not find "ZoneControl:Thermostat" in list of Objects
   ** Severe  ** IP: IDF line~39098 Did not find "ZoneHVAC:EquipmentConnections" in list of Objects
   ** Severe  ** IP: IDF line~39106 Did not find "ZoneHVAC:EquipmentList" in list of Objects
   ** Severe  ** IP: IDF line~39113 Did not find "ZoneHVAC:IdealLoadsAirSystem" in list of Objects
   ** Severe  ** IP: IDF line~39141 Did not find "ZoneControl:Thermostat" in list of Objects
   ** Severe  ** IP: IDF line~39148 Did not find "ZoneHVAC:EquipmentConnections" in list of Objects
   ** Severe  ** IP: IDF line~39156 Did not find "ZoneHVAC:EquipmentList" in list of Objects
   ** Severe  ** IP: IDF line~39163 Did not find "ZoneHVAC:IdealLoadsAirSystem" in list of Objects
   ** Severe  ** IP: IDF line~39191 Did not find "ZoneControl:Thermostat" in list of Objects
   ** Severe  ** IP: IDF line~39198 Did not find "ZoneHVAC:EquipmentConnections" in list of Objects
   ** Severe  ** IP: IDF line~39206 Did not find "ZoneHVAC:EquipmentList" in list of Objects
   ** Severe  ** IP: IDF line~39213 Did not find "ZoneHVAC:IdealLoadsAirSystem" in list of Objects
   ** Severe  ** IP: IDF line~39241 Did not find "ZoneControl:Thermostat" in list of Objects
   ** Severe  ** IP: IDF line~39248 Did not find "ZoneHVAC:EquipmentConnections" in list of Objects
   ** Severe  ** IP: IDF line~39256 Did not find "ZoneHVAC:EquipmentList" in list of Objects
   ** Severe  ** IP: IDF line~39263 Did not find "ZoneHVAC:IdealLoadsAirSystem" in list of Objects
   ** Severe  ** IP: IDF line~39291 Did not find "ZoneControl:Thermostat" in list of Objects
   ** Severe  ** IP: IDF line~39298 Did not find "ZoneHVAC:EquipmentConnections" in list of Objects
   ** Severe  ** IP: IDF line~39306 Did not find "ZoneHVAC:EquipmentList" in list of Objects
   ** Severe  ** IP: IDF line~39313 Did not find "ZoneHVAC:IdealLoadsAirSystem" in list of Objects
   ** Severe  ** IP: IDF line~39341 Did not find "ZoneControl:Thermostat" in list of Objects
   ** Severe  ** IP: IDF line~39348 Did not find "ZoneHVAC:EquipmentConnections" in list of Objects
   ** Severe  ** IP: IDF line~39356 Did not find "ZoneHVAC:EquipmentList" in list of Objects
   ** Severe  ** IP: IDF line~39363 Did not find "ZoneHVAC:IdealLoadsAirSystem" in list of Objects
   ** Severe  ** IP: IDF line~39391 Did not find "ZoneControl:Thermostat" in list of Objects
   ** Severe  ** IP: IDF line~39398 Did not find "ZoneHVAC:EquipmentConnections" in list of Objects
   ** Severe  ** IP: IDF line~39406 Did not find "ZoneHVAC:EquipmentList" in list of Objects
   ** Severe  ** IP: IDF line~39413 Did not find "ZoneHVAC:IdealLoadsAirSystem" in list of Objects
   ** Severe  ** IP: IDF line~39441 Did not find "ZoneControl:Thermostat" in list of Objects
   ** Severe  ** IP: IDF line~39448 Did not find "ZoneHVAC:EquipmentConnections" in list of Objects
   ** Severe  ** IP: IDF line~39456 Did not find "ZoneHVAC:EquipmentList" in list of Objects
   ** Severe  ** IP: IDF line~39463 Did not find "ZoneHVAC:IdealLoadsAirSystem" in list of Objects
   ** Severe  ** IP: IDF line~39491 Did not find "ZoneControl:Thermostat" in list of Objects
   ** Severe  ** IP: IDF line~39498 Did not find "ZoneHVAC:EquipmentConnections" in list of Objects
   ** Severe  ** IP: IDF line~39506 Did not find "ZoneHVAC:EquipmentList" in list of Objects
   ** Severe  ** IP: IDF line~39513 Did not find "ZoneHVAC:IdealLoadsAirSystem" in list of Objects
   ** Severe  ** IP: IDF line~39541 Did not find "ZoneControl:Thermostat" in list of Objects
   ** Severe  ** IP: IDF line~39548 Did not find "ZoneHVAC:EquipmentConnections" in list of Objects
   ** Severe  ** IP: IDF line~39556 Did not find "ZoneHVAC:EquipmentList" in list of Objects
   ** Severe  ** IP: IDF line~39563 Did not find "ZoneHVAC:IdealLoadsAirSystem" in list of Objects
   ** Severe  ** IP: IDF line~39591 Did not find "ZoneControl:Thermostat" in list of Objects
   ** Severe  ** IP: IDF line~39598 Did not find "ZoneHVAC:EquipmentConnections" in list of Objects
   ** Severe  ** IP: IDF line~39606 Did not find "ZoneHVAC:EquipmentList" in list of Objects
   ** Severe  ** IP: IDF line~39613 Did not find "ZoneHVAC:IdealLoadsAirSystem" in list of Objects
   ** Severe  ** IP: IDF line~39641 Did not find "ZoneControl:Thermostat" in list of Objects
   ** Severe  ** IP: IDF line~39648 Did not find "ZoneHVAC:EquipmentConnections" in list of Objects
   ** Severe  ** IP: IDF line~39656 Did not find "ZoneHVAC:EquipmentList" in list of Objects
   ** Severe  ** IP: IDF line~39663 Did not find "ZoneHVAC:IdealLoadsAirSystem" in list of Objects
   ** Severe  ** IP: IDF line~39691 Did not find "ZoneControl:Thermostat" in list of Objects
   ** Severe  ** IP: IDF line~39698 Did not find "ZoneHVAC:EquipmentConnections" in list of Objects
   ** Severe  ** IP: IDF line~39706 Did not find "ZoneHVAC:EquipmentList" in list of Objects
   ** Severe  ** IP: IDF line~39713 Did not find "ZoneHVAC:IdealLoadsAirSystem" in list of Objects
   ** Severe  ** IP: IDF line~39741 Did not find "ZoneControl:Thermostat" in list of Objects
   ** Severe  ** IP: IDF line~39748 Did not find "ZoneHVAC:EquipmentConnections" in list of Objects
   ** Severe  ** IP: IDF line~39756 Did not find "ZoneHVAC:EquipmentList" in list of Objects
   ** Severe  ** IP: IDF line~39763 Did not find "ZoneHVAC:IdealLoadsAirSystem" in list of Objects
   ** Severe  ** IP: IDF line~39791 Did not find "ZoneControl:Thermostat" in list of Objects
   ** Severe  ** IP: IDF line~39798 Did not find "ZoneHVAC:EquipmentConnections" in list of Objects
   ** Severe  ** IP: IDF line~39806 Did not find "ZoneHVAC:EquipmentList" in list of Objects
   ** Severe  ** IP: IDF line~39813 Did not find "ZoneHVAC:IdealLoadsAirSystem" in list of Objects
   ** Severe  ** IP: IDF line~39841 Did not find "ZoneControl:Thermostat" in list of Objects
   ** Severe  ** IP: IDF line~39848 Did not find "ZoneHVAC:EquipmentConnections" in list of Objects
   ** Severe  ** IP: IDF line~39856 Did not find "ZoneHVAC:EquipmentList" in list of Objects
   ** Severe  ** IP: IDF line~39863 Did not find "ZoneHVAC:IdealLoadsAirSystem" in list of Objects
   ** Severe  ** IP: IDF line~39891 Did not find "ZoneControl:Thermostat" in list of Objects
   ** Severe  ** IP: IDF line~39898 Did not find "ZoneHVAC:EquipmentConnections" in list of Objects
   ** Severe  ** IP: IDF line~39906 Did not find "ZoneHVAC:EquipmentList" in list of Objects
   ** Severe  ** IP: IDF line~39913 Did not find "ZoneHVAC:IdealLoadsAirSystem" in list of Objects
   ** Severe  ** IP: IDF line~39941 Did not find "ZoneControl:Thermostat" in list of Objects
   ** Severe  ** IP: IDF line~39948 Did not find "ZoneHVAC:EquipmentConnections" in list of Objects
   ** Severe  ** IP: IDF line~39956 Did not find "ZoneHVAC:EquipmentList" in list of Objects
   ** Severe  ** IP: IDF line~39963 Did not find "ZoneHVAC:IdealLoadsAirSystem" in list of Objects
   ** Severe  ** IP: IDF line~39991 Did not find "ZoneControl:Thermostat" in list of Objects
   ** Severe  ** IP: IDF line~39998 Did not find "ZoneHVAC:EquipmentConnections" in list of Objects
   ** Severe  ** IP: IDF line~40006 Did not find "ZoneHVAC:EquipmentList" in list of Objects
   ** Severe  ** IP: IDF line~40013 Did not find "ZoneHVAC:IdealLoadsAirSystem" in list of Objects
   ** Severe  ** IP: IDF line~40041 Did not find "ZoneControl:Thermostat" in list of Objects
   ** Severe  ** IP: IDF line~40048 Did not find "ZoneHVAC:EquipmentConnections" in list of Objects
   ** Severe  ** IP: IDF line~40056 Did not find "ZoneHVAC:EquipmentList" in list of Objects
   ** Severe  ** IP: IDF line~40063 Did not find "ZoneHVAC:IdealLoadsAirSystem" in list of Objects
   ** Severe  ** IP: IDF line~40091 Did not find "ZoneControl:Thermostat" in list of Objects
   ** Severe  ** IP: IDF line~40098 Did not find "ZoneHVAC:EquipmentConnections" in list of Objects
   ** Severe  ** IP: IDF line~40106 Did not find "ZoneHVAC:EquipmentList" in list of Objects
   ** Severe  ** IP: IDF line~40113 Did not find "ZoneHVAC:IdealLoadsAirSystem" in list of Objects
   ** Severe  ** IP: IDF line~40141 Did not find "ZoneControl:Thermostat" in list of Objects
   ** Severe  ** IP: IDF line~40148 Did not find "ZoneHVAC:EquipmentConnections" in list of Objects
   ** Severe  ** IP: IDF line~40156 Did not find "ZoneHVAC:EquipmentList" in list of Objects
   ** Severe  ** IP: IDF line~40163 Did not find "ZoneHVAC:IdealLoadsAirSystem" in list of Objects
   ** Severe  ** IP: IDF line~40191 Did not find "ZoneControl:Thermostat" in list of Objects
   ** Severe  ** IP: IDF line~40198 Did not find "ZoneHVAC:EquipmentConnections" in list of Objects
   ** Severe  ** IP: IDF line~40206 Did not find "ZoneHVAC:EquipmentList" in list of Objects
   ** Severe  ** IP: IDF line~40213 Did not find "ZoneHVAC:IdealLoadsAirSystem" in list of Objects
   ** Severe  ** IP: IDF line~40241 Did not find "ZoneControl:Thermostat" in list of Objects
   ** Severe  ** IP: IDF line~40248 Did not find "ZoneHVAC:EquipmentConnections" in list of Objects
   ** Severe  ** IP: IDF line~40256 Did not find "ZoneHVAC:EquipmentList" in list of Objects
   ** Severe  ** IP: IDF line~40263 Did not find "ZoneHVAC:IdealLoadsAirSystem" in list of Objects
   ** Severe  ** IP: IDF line~40291 Did not find "ZoneControl:Thermostat" in list of Objects
   ** Severe  ** IP: IDF line~40298 Did not find "ZoneHVAC:EquipmentConnections" in list of Objects
   ** Severe  ** IP: IDF line~40306 Did not find "ZoneHVAC:EquipmentList" in list of Objects
   ** Severe  ** IP: IDF line~40313 Did not find "ZoneHVAC:IdealLoadsAirSystem" in list of Objects
   ** Severe  ** IP: IDF line~40341 Did not find "ZoneControl:Thermostat" in list of Objects
   ** Severe  ** IP: IDF line~40348 Did not find "ZoneHVAC:EquipmentConnections" in list of Objects
   ** Severe  ** IP: IDF line~40356 Did not find "ZoneHVAC:EquipmentList" in list of Objects
   ** Severe  ** IP: IDF line~40363 Did not find "ZoneHVAC:IdealLoadsAirSystem" in list of Objects
   ** Severe  ** IP: IDF line~40391 Did not find "ZoneControl:Thermostat" in list of Objects
   ** Severe  ** IP: IDF line~40398 Did not find "ZoneHVAC:EquipmentConnections" in list of Objects
   ** Severe  ** IP: IDF line~40406 Did not find "ZoneHVAC:EquipmentList" in list of Objects
   ** Severe  ** IP: IDF line~40413 Did not find "ZoneHVAC:IdealLoadsAirSystem" in list of Objects
   ** Severe  ** IP: IDF line~40441 Did not find "ZoneControl:Thermostat" in list of Objects
   ** Severe  ** IP: IDF line~40448 Did not find "ZoneHVAC:EquipmentConnections" in list of Objects
   ** Severe  ** IP: IDF line~40456 Did not find "ZoneHVAC:EquipmentList" in list of Objects
   ** Severe  ** IP: IDF line~40463 Did not find "ZoneHVAC:IdealLoadsAirSystem" in list of Objects
   ** Severe  ** IP: IDF line~40491 Did not find "ZoneControl:Thermostat" in list of Objects
   ** Severe  ** IP: IDF line~40498 Did not find "ZoneHVAC:EquipmentConnections" in list of Objects
   ** Severe  ** IP: IDF line~40506 Did not find "ZoneHVAC:EquipmentList" in list of Objects
   ** Severe  ** IP: IDF line~40513 Did not find "ZoneHVAC:IdealLoadsAirSystem" in list of Objects
   ** Severe  ** IP: IDF line~40541 Did not find "ZoneControl:Thermostat" in list of Objects
   ** Severe  ** IP: IDF line~40548 Did not find "ZoneHVAC:EquipmentConnections" in list of Objects
   ** Severe  ** IP: IDF line~40556 Did not find "ZoneHVAC:EquipmentList" in list of Objects
   ** Severe  ** IP: IDF line~40563 Did not find "ZoneHVAC:IdealLoadsAirSystem" in list of Objects
   ** Severe  ** IP: IDF line~40591 Did not find "ZoneControl:Thermostat" in list of Objects
   ** Severe  ** IP: IDF line~40598 Did not find "ZoneHVAC:EquipmentConnections" in list of Objects
   ** Severe  ** IP: IDF line~40606 Did not find "ZoneHVAC:EquipmentList" in list of Objects
   ** Severe  ** IP: IDF line~40613 Did not find "ZoneHVAC:IdealLoadsAirSystem" in list of Objects
   ** Severe  ** IP: IDF line~40641 Did not find "ZoneControl:Thermostat" in list of Objects
   ** Severe  ** IP: IDF line~40648 Did not find "ZoneHVAC:EquipmentConnections" in list of Objects
   ** Severe  ** IP: IDF line~40656 Did not find "ZoneHVAC:EquipmentList" in list of Objects
   ** Severe  ** IP: IDF line~40663 Did not find "ZoneHVAC:IdealLoadsAirSystem" in list of Objects
   ** Severe  ** IP: IDF line~40691 Did not find "ZoneControl:Thermostat" in list of Objects
   ** Severe  ** IP: IDF line~40698 Did not find "ZoneHVAC:EquipmentConnections" in list of Objects
   ** Severe  ** IP: IDF line~40706 Did not find "ZoneHVAC:EquipmentList" in list of Objects
   ** Severe  ** IP: IDF line~40713 Did not find "ZoneHVAC:IdealLoadsAirSystem" in list of Objects
   ** Severe  ** IP: IDF line~40741 Did not find "ZoneControl:Thermostat" in list of Objects
   ** Severe  ** IP: IDF line~40748 Did not find "ZoneHVAC:EquipmentConnections" in list of Objects
   ** Severe  ** IP: IDF line~40756 Did not find "ZoneHVAC:EquipmentList" in list of Objects
   ** Severe  ** IP: IDF line~40763 Did not find "ZoneHVAC:IdealLoadsAirSystem" in list of Objects
   ** Severe  ** IP: IDF line~40791 Did not find "Output:PreprocessorMessage" in list of Objects
   ** Severe  ** IP: IDF line~40796 Did not find "Output:PreprocessorMessage" in list of Objects
   ** Severe  ** IP: The IDF file has no records.
   ** Severe  ** IP: Other miscellaneous errors found in input
   ** Severe  ** IP: Possible incorrect IDD File
   **   ~~~   **  not the same as expected ="8.7"
   **   ~~~   ** Possible Invalid Numerics or other problems
   ** Warning ** Requested Object not found in Definitions: Output:SQLite
   **  Fatal  ** IP: Errors occurred on processing IDF file. Preceding condition(s) cause termination.
   ...Summary of Errors that led to program termination:
   ..... Reference severe error count=2143
   ..... Last severe error=IP: Possible incorrect IDD File
   ************* Warning:  Node connection errors not checked - most system input has not been read (see previous warning).
   ************* Fatal error -- final processing.  Program exited before simulations began.  See previous error messages.
   ************* EnergyPlus Warmup Error Summary. During Warmup: 0 Warning; 0 Severe Errors.
   ************* EnergyPlus Sizing Error Summary. During Sizing: 0 Warning; 0 Severe Errors.
   ************* EnergyPlus Terminated--Fatal Error Detected. 7 Warning; 2143 Severe Errors; Elapsed Time=00hr 00min  0.10sec
